*SPEF "ieee 1481-1999"
*DESIGN "user_proj_example"
*DATE "11:11:11 Fri 11 11, 1111"
*VENDOR "OpenRCX"
*PROGRAM "Parallel Extraction"
*VERSION "1.0"
*DESIGN_FLOW "NAME_SCOPE LOCAL" "PIN_CAP NONE"
*DIVIDER /
*DELIMITER :
*BUS_DELIMITER []
*T_UNIT 1 NS
*C_UNIT 1 PF
*R_UNIT 1 OHM
*L_UNIT 1 HENRY

*NAME_MAP
*1 io_in[0]
*2 io_in[10]
*3 io_in[11]
*4 io_in[12]
*5 io_in[13]
*6 io_in[14]
*7 io_in[15]
*8 io_in[16]
*9 io_in[17]
*10 io_in[18]
*11 io_in[19]
*12 io_in[1]
*13 io_in[20]
*14 io_in[21]
*15 io_in[22]
*16 io_in[23]
*17 io_in[24]
*18 io_in[25]
*19 io_in[26]
*20 io_in[27]
*21 io_in[28]
*22 io_in[29]
*23 io_in[2]
*24 io_in[30]
*25 io_in[31]
*26 io_in[32]
*27 io_in[33]
*28 io_in[34]
*29 io_in[35]
*30 io_in[36]
*31 io_in[37]
*32 io_in[3]
*33 io_in[4]
*34 io_in[5]
*35 io_in[6]
*36 io_in[7]
*37 io_in[8]
*38 io_in[9]
*39 io_oeb[0]
*40 io_oeb[10]
*41 io_oeb[11]
*42 io_oeb[12]
*43 io_oeb[13]
*44 io_oeb[14]
*45 io_oeb[15]
*46 io_oeb[16]
*47 io_oeb[17]
*48 io_oeb[18]
*49 io_oeb[19]
*50 io_oeb[1]
*51 io_oeb[20]
*52 io_oeb[21]
*53 io_oeb[22]
*54 io_oeb[23]
*55 io_oeb[24]
*56 io_oeb[25]
*57 io_oeb[26]
*58 io_oeb[27]
*59 io_oeb[28]
*60 io_oeb[29]
*61 io_oeb[2]
*62 io_oeb[30]
*63 io_oeb[31]
*64 io_oeb[32]
*65 io_oeb[33]
*66 io_oeb[34]
*67 io_oeb[35]
*68 io_oeb[36]
*69 net239
*70 io_oeb[3]
*71 io_oeb[4]
*72 io_oeb[5]
*73 io_oeb[6]
*74 io_oeb[7]
*75 io_oeb[8]
*76 io_oeb[9]
*77 io_out[0]
*78 io_out[10]
*79 io_out[11]
*80 io_out[12]
*81 io_out[13]
*82 io_out[14]
*83 io_out[15]
*84 io_out[16]
*85 io_out[17]
*86 io_out[18]
*87 io_out[19]
*88 io_out[1]
*89 io_out[20]
*90 io_out[21]
*91 io_out[22]
*92 io_out[23]
*93 io_out[24]
*94 io_out[25]
*95 io_out[26]
*96 io_out[27]
*97 io_out[28]
*98 io_out[29]
*99 io_out[2]
*100 io_out[30]
*101 io_out[31]
*102 net240
*103 net241
*104 net242
*105 net243
*106 net244
*107 net245
*108 io_out[3]
*109 io_out[4]
*110 io_out[5]
*111 io_out[6]
*112 io_out[7]
*113 io_out[8]
*114 io_out[9]
*115 net246
*116 net247
*117 net248
*118 la_data_in[0]
*119 la_data_in[10]
*120 la_data_in[11]
*121 la_data_in[12]
*122 la_data_in[13]
*123 la_data_in[14]
*124 la_data_in[15]
*125 la_data_in[16]
*126 la_data_in[17]
*127 la_data_in[18]
*128 la_data_in[19]
*129 la_data_in[1]
*130 la_data_in[20]
*131 la_data_in[21]
*132 la_data_in[22]
*133 la_data_in[23]
*134 la_data_in[24]
*135 la_data_in[25]
*136 la_data_in[26]
*137 la_data_in[27]
*138 la_data_in[28]
*139 la_data_in[29]
*140 la_data_in[2]
*141 la_data_in[30]
*142 la_data_in[31]
*143 la_data_in[32]
*144 la_data_in[33]
*145 la_data_in[34]
*146 la_data_in[35]
*147 la_data_in[36]
*148 la_data_in[37]
*149 la_data_in[38]
*150 la_data_in[39]
*151 la_data_in[3]
*152 la_data_in[40]
*153 la_data_in[41]
*154 la_data_in[42]
*155 la_data_in[43]
*156 la_data_in[44]
*157 la_data_in[45]
*158 la_data_in[46]
*159 la_data_in[47]
*160 la_data_in[48]
*161 la_data_in[49]
*162 la_data_in[4]
*163 la_data_in[50]
*164 la_data_in[51]
*165 la_data_in[52]
*166 la_data_in[53]
*167 la_data_in[54]
*168 la_data_in[55]
*169 la_data_in[56]
*170 la_data_in[57]
*171 la_data_in[58]
*172 la_data_in[59]
*173 la_data_in[5]
*174 la_data_in[60]
*175 la_data_in[61]
*176 la_data_in[62]
*177 la_data_in[63]
*178 la_data_in[6]
*179 la_data_in[7]
*180 la_data_in[8]
*181 la_data_in[9]
*182 la_data_out[0]
*183 la_data_out[10]
*184 la_data_out[11]
*185 la_data_out[12]
*186 la_data_out[13]
*187 la_data_out[14]
*188 la_data_out[15]
*189 la_data_out[16]
*190 la_data_out[17]
*191 la_data_out[18]
*192 la_data_out[19]
*193 la_data_out[1]
*194 la_data_out[20]
*195 la_data_out[21]
*196 la_data_out[22]
*197 la_data_out[23]
*198 la_data_out[24]
*199 la_data_out[25]
*200 la_data_out[26]
*201 la_data_out[27]
*202 la_data_out[28]
*203 la_data_out[29]
*204 la_data_out[2]
*205 la_data_out[30]
*206 la_data_out[31]
*207 net249
*208 net250
*209 net251
*210 net252
*211 net253
*212 net254
*213 net255
*214 net256
*215 la_data_out[3]
*216 net257
*217 net258
*218 net259
*219 net260
*220 net261
*221 net262
*222 net263
*223 net264
*224 net265
*225 net266
*226 la_data_out[4]
*227 net267
*228 net268
*229 net269
*230 net270
*231 net271
*232 net272
*233 net273
*234 net274
*235 net275
*236 net276
*237 la_data_out[5]
*238 net277
*239 net278
*240 net279
*241 net280
*242 la_data_out[6]
*243 la_data_out[7]
*244 la_data_out[8]
*245 la_data_out[9]
*246 la_oenb[0]
*247 la_oenb[10]
*248 la_oenb[11]
*249 la_oenb[12]
*250 la_oenb[13]
*251 la_oenb[14]
*252 la_oenb[15]
*253 la_oenb[16]
*254 la_oenb[17]
*255 la_oenb[18]
*256 la_oenb[19]
*257 la_oenb[1]
*258 la_oenb[20]
*259 la_oenb[21]
*260 la_oenb[22]
*261 la_oenb[23]
*262 la_oenb[24]
*263 la_oenb[25]
*264 la_oenb[26]
*265 la_oenb[27]
*266 la_oenb[28]
*267 la_oenb[29]
*268 la_oenb[2]
*269 la_oenb[30]
*270 la_oenb[31]
*271 la_oenb[32]
*272 la_oenb[33]
*273 la_oenb[34]
*274 la_oenb[35]
*275 la_oenb[36]
*276 la_oenb[37]
*277 la_oenb[38]
*278 la_oenb[39]
*279 la_oenb[3]
*280 la_oenb[40]
*281 la_oenb[41]
*282 la_oenb[42]
*283 la_oenb[43]
*284 la_oenb[44]
*285 la_oenb[45]
*286 la_oenb[46]
*287 la_oenb[47]
*288 la_oenb[48]
*289 la_oenb[49]
*290 la_oenb[4]
*291 la_oenb[50]
*292 la_oenb[51]
*293 la_oenb[52]
*294 la_oenb[53]
*295 la_oenb[54]
*296 la_oenb[55]
*297 la_oenb[56]
*298 la_oenb[57]
*299 la_oenb[58]
*300 la_oenb[59]
*301 la_oenb[5]
*302 la_oenb[60]
*303 la_oenb[61]
*304 la_oenb[62]
*305 la_oenb[63]
*306 la_oenb[6]
*307 la_oenb[7]
*308 la_oenb[8]
*309 la_oenb[9]
*312 wb_clk_i
*313 wb_rst_i
*314 wbs_ack_o
*315 wbs_adr_i[0]
*316 wbs_adr_i[10]
*317 wbs_adr_i[11]
*318 wbs_adr_i[12]
*319 wbs_adr_i[13]
*320 wbs_adr_i[14]
*321 wbs_adr_i[15]
*322 wbs_adr_i[16]
*323 wbs_adr_i[17]
*324 wbs_adr_i[18]
*325 wbs_adr_i[19]
*326 wbs_adr_i[1]
*327 wbs_adr_i[20]
*328 wbs_adr_i[21]
*329 wbs_adr_i[22]
*330 wbs_adr_i[23]
*331 wbs_adr_i[24]
*332 wbs_adr_i[25]
*333 wbs_adr_i[26]
*334 wbs_adr_i[27]
*335 wbs_adr_i[28]
*336 wbs_adr_i[29]
*337 wbs_adr_i[2]
*338 wbs_adr_i[30]
*339 wbs_adr_i[31]
*340 wbs_adr_i[3]
*341 wbs_adr_i[4]
*342 wbs_adr_i[5]
*343 wbs_adr_i[6]
*344 wbs_adr_i[7]
*345 wbs_adr_i[8]
*346 wbs_adr_i[9]
*347 wbs_cyc_i
*348 wbs_dat_i[0]
*349 wbs_dat_i[10]
*350 wbs_dat_i[11]
*351 wbs_dat_i[12]
*352 wbs_dat_i[13]
*353 wbs_dat_i[14]
*354 wbs_dat_i[15]
*355 wbs_dat_i[16]
*356 wbs_dat_i[17]
*357 wbs_dat_i[18]
*358 wbs_dat_i[19]
*359 wbs_dat_i[1]
*360 wbs_dat_i[20]
*361 wbs_dat_i[21]
*362 wbs_dat_i[22]
*363 wbs_dat_i[23]
*364 wbs_dat_i[24]
*365 wbs_dat_i[25]
*366 wbs_dat_i[26]
*367 wbs_dat_i[27]
*368 wbs_dat_i[28]
*369 wbs_dat_i[29]
*370 wbs_dat_i[2]
*371 wbs_dat_i[30]
*372 wbs_dat_i[31]
*373 wbs_dat_i[3]
*374 wbs_dat_i[4]
*375 wbs_dat_i[5]
*376 wbs_dat_i[6]
*377 wbs_dat_i[7]
*378 wbs_dat_i[8]
*379 wbs_dat_i[9]
*380 wbs_dat_o[0]
*381 wbs_dat_o[10]
*382 wbs_dat_o[11]
*383 wbs_dat_o[12]
*384 wbs_dat_o[13]
*385 wbs_dat_o[14]
*386 wbs_dat_o[15]
*387 wbs_dat_o[16]
*388 wbs_dat_o[17]
*389 wbs_dat_o[18]
*390 wbs_dat_o[19]
*391 wbs_dat_o[1]
*392 wbs_dat_o[20]
*393 wbs_dat_o[21]
*394 wbs_dat_o[22]
*395 wbs_dat_o[23]
*396 wbs_dat_o[24]
*397 wbs_dat_o[25]
*398 wbs_dat_o[26]
*399 wbs_dat_o[27]
*400 wbs_dat_o[28]
*401 wbs_dat_o[29]
*402 wbs_dat_o[2]
*403 wbs_dat_o[30]
*404 wbs_dat_o[31]
*405 wbs_dat_o[3]
*406 wbs_dat_o[4]
*407 wbs_dat_o[5]
*408 wbs_dat_o[6]
*409 wbs_dat_o[7]
*410 wbs_dat_o[8]
*411 wbs_dat_o[9]
*412 wbs_sel_i[0]
*413 wbs_sel_i[1]
*414 wbs_sel_i[2]
*415 wbs_sel_i[3]
*416 wbs_stb_i
*417 wbs_we_i
*418 _000_
*419 _001_
*420 _002_
*421 _003_
*422 _004_
*423 _005_
*424 _006_
*425 _007_
*426 _008_
*427 _009_
*428 _010_
*429 _011_
*430 _012_
*431 _013_
*432 _014_
*433 _015_
*434 _016_
*435 _017_
*436 _018_
*437 _019_
*438 _020_
*439 _021_
*440 _022_
*441 _023_
*442 _024_
*443 _025_
*444 _026_
*445 _027_
*446 _028_
*447 _029_
*448 _030_
*449 _031_
*450 _032_
*451 _033_
*452 _034_
*453 _035_
*454 _036_
*455 _037_
*456 _038_
*457 _039_
*458 _040_
*459 _041_
*460 _042_
*461 _043_
*462 _044_
*463 _045_
*464 _046_
*465 _047_
*466 _048_
*467 _049_
*468 _050_
*469 _051_
*470 _052_
*471 _053_
*472 _054_
*473 _055_
*474 _056_
*475 _057_
*476 _058_
*477 _059_
*478 _060_
*479 _061_
*480 _062_
*481 _063_
*482 _064_
*483 _065_
*484 _066_
*485 _067_
*486 _068_
*487 _069_
*488 _070_
*489 _071_
*490 _072_
*491 _073_
*492 _074_
*493 _075_
*494 _076_
*495 _077_
*496 _078_
*497 _079_
*498 _080_
*499 _081_
*500 _082_
*501 _083_
*502 _084_
*503 _085_
*504 _086_
*505 _087_
*506 _088_
*507 _089_
*508 _090_
*509 _091_
*510 _092_
*511 _093_
*512 _094_
*513 _095_
*514 _096_
*515 _097_
*516 _098_
*517 _099_
*518 _100_
*519 _101_
*520 _102_
*521 _103_
*522 _104_
*523 _105_
*524 _106_
*525 _107_
*526 _108_
*527 _109_
*528 _110_
*529 _111_
*530 _112_
*531 _113_
*532 _114_
*533 _115_
*534 _116_
*535 _117_
*536 _118_
*537 _119_
*538 _120_
*539 _121_
*540 _122_
*541 _123_
*542 _124_
*543 _125_
*544 _126_
*545 _127_
*546 _128_
*547 _129_
*548 _130_
*549 _131_
*550 _132_
*551 _133_
*552 _134_
*553 _135_
*554 _136_
*555 _137_
*556 _138_
*557 _139_
*558 _140_
*559 _141_
*560 _142_
*561 _143_
*562 _144_
*563 _145_
*564 _146_
*565 _147_
*566 _148_
*567 _149_
*568 _150_
*569 _151_
*570 _152_
*571 _153_
*572 _154_
*573 _155_
*574 _156_
*575 _157_
*576 _158_
*577 _159_
*578 _160_
*579 _161_
*580 _162_
*581 _163_
*582 _164_
*583 _165_
*584 _166_
*585 _167_
*586 _168_
*587 _169_
*588 _170_
*589 _171_
*590 _172_
*591 _173_
*592 _174_
*593 _175_
*594 _176_
*595 _177_
*596 _178_
*597 _179_
*598 _180_
*599 _181_
*600 _182_
*601 _183_
*602 _184_
*603 _185_
*604 _186_
*605 _187_
*606 _188_
*607 _189_
*608 _190_
*609 _191_
*610 _192_
*611 _193_
*612 _194_
*613 _195_
*614 _196_
*615 _197_
*616 _198_
*617 _199_
*618 _200_
*619 _201_
*620 _202_
*621 _203_
*622 _204_
*623 _205_
*624 _206_
*625 _207_
*626 _208_
*627 _209_
*628 _210_
*629 _211_
*630 _212_
*631 _213_
*632 _214_
*633 _215_
*634 _216_
*635 _217_
*636 _218_
*637 _219_
*638 _220_
*639 _221_
*640 _222_
*641 _223_
*642 _224_
*643 _225_
*644 _226_
*645 _227_
*646 _228_
*647 _229_
*648 _230_
*649 _231_
*650 _232_
*651 _233_
*652 _234_
*653 _235_
*654 _236_
*655 _237_
*656 _238_
*657 _239_
*658 _240_
*659 _241_
*660 _242_
*661 _243_
*662 _244_
*663 _245_
*664 _246_
*665 _247_
*666 _248_
*667 _249_
*668 _250_
*669 _251_
*670 _252_
*671 _253_
*672 _254_
*673 _255_
*674 _256_
*675 _257_
*676 _258_
*677 _259_
*678 _260_
*679 _261_
*680 _262_
*681 _263_
*682 _264_
*683 _265_
*684 _266_
*685 _267_
*686 _268_
*687 _269_
*688 _270_
*689 _271_
*690 _272_
*691 _273_
*692 _274_
*693 _275_
*694 _276_
*695 _277_
*696 _278_
*697 _279_
*698 _280_
*699 _281_
*700 _282_
*701 _283_
*702 _284_
*703 _285_
*704 _286_
*705 _287_
*706 _288_
*707 _289_
*708 _290_
*709 _291_
*710 _292_
*711 _293_
*712 _294_
*713 _295_
*714 _296_
*715 _297_
*716 _298_
*717 _299_
*718 _300_
*719 _301_
*720 _302_
*721 _303_
*722 _304_
*723 _305_
*724 _306_
*725 _307_
*726 _308_
*727 _309_
*728 _310_
*729 _311_
*730 _312_
*731 _313_
*732 _314_
*733 _315_
*734 _316_
*735 _317_
*736 _318_
*737 _319_
*738 _320_
*739 _321_
*740 _322_
*741 _323_
*742 _324_
*743 _325_
*744 _326_
*745 _327_
*746 _328_
*747 _329_
*748 _330_
*749 _331_
*750 _332_
*751 _333_
*752 _334_
*753 _335_
*754 _336_
*755 _337_
*756 _338_
*757 _339_
*758 _340_
*759 _341_
*760 _342_
*761 _343_
*762 _344_
*763 _345_
*764 clknet_0_wb_clk_i
*765 clknet_3_0__leaf_wb_clk_i
*766 clknet_3_1__leaf_wb_clk_i
*767 clknet_3_2__leaf_wb_clk_i
*768 clknet_3_3__leaf_wb_clk_i
*769 clknet_3_4__leaf_wb_clk_i
*770 clknet_3_5__leaf_wb_clk_i
*771 clknet_3_6__leaf_wb_clk_i
*772 clknet_3_7__leaf_wb_clk_i
*773 net1
*774 net10
*775 net100
*776 net101
*777 net102
*778 net103
*779 net104
*780 net105
*781 net106
*782 net107
*783 net108
*784 net109
*785 net11
*786 net110
*787 net111
*788 net112
*789 net113
*790 net114
*791 net115
*792 net116
*793 net117
*794 net118
*795 net119
*796 net12
*797 net120
*798 net121
*799 net122
*800 net123
*801 net124
*802 net125
*803 net126
*804 net127
*805 net128
*806 net129
*807 net13
*808 net130
*809 net131
*810 net132
*811 net133
*812 net134
*813 net135
*814 net136
*815 net137
*816 net138
*817 net139
*818 net14
*819 net140
*820 net141
*821 net142
*822 net143
*823 net144
*824 net145
*825 net146
*826 net147
*827 net148
*828 net149
*829 net15
*830 net150
*831 net151
*832 net152
*833 net153
*834 net154
*835 net155
*836 net156
*837 net157
*838 net158
*839 net159
*840 net16
*841 net160
*842 net161
*843 net162
*844 net163
*845 net164
*846 net165
*847 net166
*848 net167
*849 net168
*850 net169
*851 net17
*852 net170
*853 net171
*854 net172
*855 net173
*856 net174
*857 net175
*858 net176
*859 net177
*860 net178
*861 net179
*862 net18
*863 net180
*864 net181
*865 net182
*866 net183
*867 net184
*868 net185
*869 net186
*870 net187
*871 net188
*872 net189
*873 net19
*874 net190
*875 net191
*876 net192
*877 net193
*878 net194
*879 net195
*880 net196
*881 net197
*882 net198
*883 net199
*884 net2
*885 net20
*886 net200
*887 net201
*888 net202
*889 net203
*890 net204
*891 net205
*892 net206
*893 net207
*894 net208
*895 net209
*896 net21
*897 net210
*898 net211
*899 net212
*900 net213
*901 net214
*902 net215
*903 net216
*904 net217
*905 net218
*906 net219
*907 net22
*908 net220
*909 net221
*910 net222
*911 net223
*912 net224
*913 net225
*914 net226
*915 net227
*916 net228
*917 net229
*918 net23
*919 net230
*920 net231
*921 net232
*922 net233
*923 net234
*924 net235
*925 net236
*926 net237
*927 net238
*928 net24
*929 net25
*930 net26
*931 net27
*932 net28
*933 net29
*934 net3
*935 net30
*936 net31
*937 net32
*938 net33
*939 net34
*940 net35
*941 net36
*942 net37
*943 net38
*944 net39
*945 net4
*946 net40
*947 net41
*948 net42
*949 net43
*950 net44
*951 net45
*952 net46
*953 net47
*954 net48
*955 net49
*956 net5
*957 net50
*958 net51
*959 net52
*960 net53
*961 net54
*962 net55
*963 net56
*964 net57
*965 net58
*966 net59
*967 net6
*968 net60
*969 net61
*970 net62
*971 net63
*972 net64
*973 net65
*974 net66
*975 net67
*976 net68
*977 net69
*978 net7
*979 net70
*980 net71
*981 net72
*982 net73
*983 net74
*984 net75
*985 net76
*986 net77
*987 net78
*988 net79
*989 net8
*990 net80
*991 net81
*992 net82
*993 net83
*994 net84
*995 net85
*996 net86
*997 net87
*998 net88
*999 net89
*1000 net9
*1001 net90
*1002 net91
*1003 net92
*1004 net93
*1005 net94
*1006 net95
*1007 net96
*1008 net97
*1009 net98
*1010 net99
*1011 ANTENNA__346__I
*1012 ANTENNA__348__I
*1013 ANTENNA__350__I
*1014 ANTENNA__351__A2
*1015 ANTENNA__352__A1
*1016 ANTENNA__352__A2
*1017 ANTENNA__353__I
*1018 ANTENNA__354__I
*1019 ANTENNA__355__I
*1020 ANTENNA__356__I
*1021 ANTENNA__357__I
*1022 ANTENNA__358__A2
*1023 ANTENNA__359__I
*1024 ANTENNA__361__A1
*1025 ANTENNA__363__A1
*1026 ANTENNA__363__A2
*1027 ANTENNA__364__A1
*1028 ANTENNA__364__A2
*1029 ANTENNA__365__I
*1030 ANTENNA__367__A2
*1031 ANTENNA__368__A2
*1032 ANTENNA__369__A1
*1033 ANTENNA__369__A2
*1034 ANTENNA__369__A3
*1035 ANTENNA__371__A1
*1036 ANTENNA__371__A2
*1037 ANTENNA__373__A1
*1038 ANTENNA__374__A1
*1039 ANTENNA__375__A1
*1040 ANTENNA__376__A1
*1041 ANTENNA__376__A2
*1042 ANTENNA__377__A1
*1043 ANTENNA__377__A2
*1044 ANTENNA__377__A3
*1045 ANTENNA__378__A1
*1046 ANTENNA__378__A2
*1047 ANTENNA__378__A3
*1048 ANTENNA__379__A2
*1049 ANTENNA__380__A2
*1050 ANTENNA__382__A2
*1051 ANTENNA__383__A2
*1052 ANTENNA__384__A1
*1053 ANTENNA__384__A2
*1054 ANTENNA__384__A3
*1055 ANTENNA__384__A4
*1056 ANTENNA__385__A2
*1057 ANTENNA__387__A2
*1058 ANTENNA__388__A1
*1059 ANTENNA__388__A2
*1060 ANTENNA__390__A2
*1061 ANTENNA__391__A1
*1062 ANTENNA__391__A2
*1063 ANTENNA__391__A3
*1064 ANTENNA__391__A4
*1065 ANTENNA__392__A2
*1066 ANTENNA__393__A2
*1067 ANTENNA__394__A2
*1068 ANTENNA__396__A1
*1069 ANTENNA__396__A2
*1070 ANTENNA__396__A3
*1071 ANTENNA__396__A4
*1072 ANTENNA__397__A1
*1073 ANTENNA__397__A2
*1074 ANTENNA__397__B
*1075 ANTENNA__398__A2
*1076 ANTENNA__399__A2
*1077 ANTENNA__399__B
*1078 ANTENNA__400__A2
*1079 ANTENNA__401__A2
*1080 ANTENNA__403__A2
*1081 ANTENNA__403__A4
*1082 ANTENNA__404__I
*1083 ANTENNA__406__A1
*1084 ANTENNA__406__A2
*1085 ANTENNA__407__A1
*1086 ANTENNA__407__A2
*1087 ANTENNA__408__A1
*1088 ANTENNA__410__I
*1089 ANTENNA__412__A1
*1090 ANTENNA__412__A2
*1091 ANTENNA__412__B1
*1092 ANTENNA__412__B2
*1093 ANTENNA__413__I
*1094 ANTENNA__414__I
*1095 ANTENNA__415__A3
*1096 ANTENNA__415__A4
*1097 ANTENNA__416__A1
*1098 ANTENNA__416__B
*1099 ANTENNA__417__I
*1100 ANTENNA__418__I
*1101 ANTENNA__419__I
*1102 ANTENNA__421__I
*1103 ANTENNA__422__A3
*1104 ANTENNA__422__A4
*1105 ANTENNA__423__A1
*1106 ANTENNA__423__A2
*1107 ANTENNA__423__B1
*1108 ANTENNA__423__C
*1109 ANTENNA__424__A1
*1110 ANTENNA__425__A1
*1111 ANTENNA__426__I
*1112 ANTENNA__427__B
*1113 ANTENNA__428__A1
*1114 ANTENNA__428__B
*1115 ANTENNA__429__A3
*1116 ANTENNA__429__A4
*1117 ANTENNA__430__A1
*1118 ANTENNA__430__A2
*1119 ANTENNA__430__B2
*1120 ANTENNA__430__C
*1121 ANTENNA__431__A1
*1122 ANTENNA__432__A1
*1123 ANTENNA__433__A3
*1124 ANTENNA__433__A4
*1125 ANTENNA__434__A1
*1126 ANTENNA__434__A2
*1127 ANTENNA__434__B1
*1128 ANTENNA__434__C
*1129 ANTENNA__435__A1
*1130 ANTENNA__436__I
*1131 ANTENNA__437__A1
*1132 ANTENNA__438__I
*1133 ANTENNA__439__A1
*1134 ANTENNA__439__A2
*1135 ANTENNA__439__A3
*1136 ANTENNA__439__A4
*1137 ANTENNA__440__A1
*1138 ANTENNA__440__A2
*1139 ANTENNA__441__I
*1140 ANTENNA__442__A2
*1141 ANTENNA__443__A1
*1142 ANTENNA__443__A2
*1143 ANTENNA__443__B1
*1144 ANTENNA__443__C2
*1145 ANTENNA__444__A1
*1146 ANTENNA__445__I
*1147 ANTENNA__446__A1
*1148 ANTENNA__446__A2
*1149 ANTENNA__447__A1
*1150 ANTENNA__448__A1
*1151 ANTENNA__448__A2
*1152 ANTENNA__448__C2
*1153 ANTENNA__450__A1
*1154 ANTENNA__450__A2
*1155 ANTENNA__450__A3
*1156 ANTENNA__451__A1
*1157 ANTENNA__452__A1
*1158 ANTENNA__452__A2
*1159 ANTENNA__452__C2
*1160 ANTENNA__454__I
*1161 ANTENNA__455__A2
*1162 ANTENNA__456__I
*1163 ANTENNA__458__A1
*1164 ANTENNA__458__A2
*1165 ANTENNA__458__A3
*1166 ANTENNA__458__A4
*1167 ANTENNA__459__A1
*1168 ANTENNA__460__A1
*1169 ANTENNA__460__A2
*1170 ANTENNA__460__C2
*1171 ANTENNA__463__A1
*1172 ANTENNA__463__A2
*1173 ANTENNA__464__A1
*1174 ANTENNA__465__I
*1175 ANTENNA__466__A1
*1176 ANTENNA__467__A1
*1177 ANTENNA__468__A2
*1178 ANTENNA__470__A1
*1179 ANTENNA__470__A2
*1180 ANTENNA__470__C2
*1181 ANTENNA__471__A2
*1182 ANTENNA__472__A1
*1183 ANTENNA__472__B
*1184 ANTENNA__473__A1
*1185 ANTENNA__473__A2
*1186 ANTENNA__474__A1
*1187 ANTENNA__477__A1
*1188 ANTENNA__477__A2
*1189 ANTENNA__477__B2
*1190 ANTENNA__478__I
*1191 ANTENNA__479__B
*1192 ANTENNA__480__I
*1193 ANTENNA__481__A1
*1194 ANTENNA__482__A1
*1195 ANTENNA__482__A2
*1196 ANTENNA__482__C2
*1197 ANTENNA__484__I
*1198 ANTENNA__485__A1
*1199 ANTENNA__486__A1
*1200 ANTENNA__486__A2
*1201 ANTENNA__488__A1
*1202 ANTENNA__488__A2
*1203 ANTENNA__488__C2
*1204 ANTENNA__490__A1
*1205 ANTENNA__490__A2
*1206 ANTENNA__491__A1
*1207 ANTENNA__492__A1
*1208 ANTENNA__492__A2
*1209 ANTENNA__492__B1
*1210 ANTENNA__492__C2
*1211 ANTENNA__494__A1
*1212 ANTENNA__495__A1
*1213 ANTENNA__496__A1
*1214 ANTENNA__496__A2
*1215 ANTENNA__496__B1
*1216 ANTENNA__496__C2
*1217 ANTENNA__498__I
*1218 ANTENNA__499__I
*1219 ANTENNA__500__A1
*1220 ANTENNA__500__A2
*1221 ANTENNA__500__A3
*1222 ANTENNA__500__A4
*1223 ANTENNA__501__A1
*1224 ANTENNA__502__A1
*1225 ANTENNA__502__B2
*1226 ANTENNA__504__A3
*1227 ANTENNA__505__A1
*1228 ANTENNA__505__B1
*1229 ANTENNA__505__C
*1230 ANTENNA__506__A1
*1231 ANTENNA__507__I
*1232 ANTENNA__508__A1
*1233 ANTENNA__508__A2
*1234 ANTENNA__509__A1
*1235 ANTENNA__509__A2
*1236 ANTENNA__509__B1
*1237 ANTENNA__509__C2
*1238 ANTENNA__510__A1
*1239 ANTENNA__511__A1
*1240 ANTENNA__511__A2
*1241 ANTENNA__512__A2
*1242 ANTENNA__513__A1
*1243 ANTENNA__513__A2
*1244 ANTENNA__514__A1
*1245 ANTENNA__515__I
*1246 ANTENNA__516__A1
*1247 ANTENNA__516__A2
*1248 ANTENNA__517__A1
*1249 ANTENNA__517__A2
*1250 ANTENNA__518__A2
*1251 ANTENNA__519__I
*1252 ANTENNA__520__A1
*1253 ANTENNA__520__A2
*1254 ANTENNA__520__B2
*1255 ANTENNA__520__C2
*1256 ANTENNA__521__A1
*1257 ANTENNA__521__A2
*1258 ANTENNA__522__I
*1259 ANTENNA__523__A1
*1260 ANTENNA__523__A2
*1261 ANTENNA__523__B
*1262 ANTENNA__524__A1
*1263 ANTENNA__524__A2
*1264 ANTENNA__525__A1
*1265 ANTENNA__525__A2
*1266 ANTENNA__526__I
*1267 ANTENNA__527__A2
*1268 ANTENNA__528__A1
*1269 ANTENNA__528__A2
*1270 ANTENNA__528__B2
*1271 ANTENNA__529__A1
*1272 ANTENNA__529__A2
*1273 ANTENNA__530__I
*1274 ANTENNA__531__I
*1275 ANTENNA__532__A1
*1276 ANTENNA__533__I
*1277 ANTENNA__534__A1
*1278 ANTENNA__534__A2
*1279 ANTENNA__534__C2
*1280 ANTENNA__536__A1
*1281 ANTENNA__536__A2
*1282 ANTENNA__537__A1
*1283 ANTENNA__537__B
*1284 ANTENNA__539__A1
*1285 ANTENNA__539__A2
*1286 ANTENNA__539__B2
*1287 ANTENNA__541__A1
*1288 ANTENNA__542__A1
*1289 ANTENNA__542__A2
*1290 ANTENNA__542__C2
*1291 ANTENNA__544__A1
*1292 ANTENNA__545__A1
*1293 ANTENNA__545__A2
*1294 ANTENNA__546__A1
*1295 ANTENNA__546__A2
*1296 ANTENNA__546__A3
*1297 ANTENNA__547__A1
*1298 ANTENNA__547__B
*1299 ANTENNA__548__A1
*1300 ANTENNA__548__A2
*1301 ANTENNA__548__B2
*1302 ANTENNA__549__A2
*1303 ANTENNA__549__B
*1304 ANTENNA__550__I
*1305 ANTENNA__551__A1
*1306 ANTENNA__551__A2
*1307 ANTENNA__552__A1
*1308 ANTENNA__552__A2
*1309 ANTENNA__552__B1
*1310 ANTENNA__552__C2
*1311 ANTENNA__554__I
*1312 ANTENNA__555__A1
*1313 ANTENNA__555__A2
*1314 ANTENNA__556__A1
*1315 ANTENNA__556__A2
*1316 ANTENNA__557__A1
*1317 ANTENNA__557__A2
*1318 ANTENNA__558__A1
*1319 ANTENNA__558__A2
*1320 ANTENNA__558__B1
*1321 ANTENNA__558__C2
*1322 ANTENNA__559__A1
*1323 ANTENNA__560__A1
*1324 ANTENNA__561__A1
*1325 ANTENNA__561__A2
*1326 ANTENNA__562__A1
*1327 ANTENNA__563__I
*1328 ANTENNA__564__A1
*1329 ANTENNA__564__A2
*1330 ANTENNA__565__A1
*1331 ANTENNA__566__A2
*1332 ANTENNA__567__I
*1333 ANTENNA__568__A1
*1334 ANTENNA__568__A2
*1335 ANTENNA__568__B1
*1336 ANTENNA__568__C1
*1337 ANTENNA__568__C2
*1338 ANTENNA__569__A1
*1339 ANTENNA__570__A1
*1340 ANTENNA__571__I
*1341 ANTENNA__572__I
*1342 ANTENNA__573__A1
*1343 ANTENNA__573__A2
*1344 ANTENNA__573__A3
*1345 ANTENNA__574__I
*1346 ANTENNA__575__I
*1347 ANTENNA__576__A1
*1348 ANTENNA__576__A2
*1349 ANTENNA__577__A1
*1350 ANTENNA__577__A2
*1351 ANTENNA__577__A3
*1352 ANTENNA__578__I
*1353 ANTENNA__579__A1
*1354 ANTENNA__580__A1
*1355 ANTENNA__580__A2
*1356 ANTENNA__580__B2
*1357 ANTENNA__581__A1
*1358 ANTENNA__582__I
*1359 ANTENNA__583__A1
*1360 ANTENNA__584__A1
*1361 ANTENNA__584__A2
*1362 ANTENNA__584__B1
*1363 ANTENNA__584__C1
*1364 ANTENNA__584__C2
*1365 ANTENNA__585__A1
*1366 ANTENNA__586__I
*1367 ANTENNA__587__A1
*1368 ANTENNA__587__A2
*1369 ANTENNA__587__A3
*1370 ANTENNA__588__A1
*1371 ANTENNA__588__B
*1372 ANTENNA__591__A1
*1373 ANTENNA__591__A2
*1374 ANTENNA__591__A3
*1375 ANTENNA__592__A1
*1376 ANTENNA__592__C
*1377 ANTENNA__593__A1
*1378 ANTENNA__594__A1
*1379 ANTENNA__595__A1
*1380 ANTENNA__596__A1
*1381 ANTENNA__596__A2
*1382 ANTENNA__596__B1
*1383 ANTENNA__596__C1
*1384 ANTENNA__596__C2
*1385 ANTENNA__597__A1
*1386 ANTENNA__597__A2
*1387 ANTENNA__598__A1
*1388 ANTENNA__598__A2
*1389 ANTENNA__598__A3
*1390 ANTENNA__598__A4
*1391 ANTENNA__599__A1
*1392 ANTENNA__600__A1
*1393 ANTENNA__600__A2
*1394 ANTENNA__600__B1
*1395 ANTENNA__600__C1
*1396 ANTENNA__600__C2
*1397 ANTENNA__601__A1
*1398 ANTENNA__602__A1
*1399 ANTENNA__602__A2
*1400 ANTENNA__603__I
*1401 ANTENNA__604__A1
*1402 ANTENNA__604__A2
*1403 ANTENNA__604__A3
*1404 ANTENNA__605__I
*1405 ANTENNA__606__A1
*1406 ANTENNA__606__B
*1407 ANTENNA__607__A1
*1408 ANTENNA__608__A1
*1409 ANTENNA__608__A2
*1410 ANTENNA__608__B2
*1411 ANTENNA__609__B
*1412 ANTENNA__610__A1
*1413 ANTENNA__610__A2
*1414 ANTENNA__610__A3
*1415 ANTENNA__611__I
*1416 ANTENNA__612__A1
*1417 ANTENNA__612__A2
*1418 ANTENNA__612__B
*1419 ANTENNA__613__A1
*1420 ANTENNA__614__A1
*1421 ANTENNA__615__A1
*1422 ANTENNA__615__A2
*1423 ANTENNA__615__B2
*1424 ANTENNA__616__B
*1425 ANTENNA__617__I
*1426 ANTENNA__618__A1
*1427 ANTENNA__618__A2
*1428 ANTENNA__619__A1
*1429 ANTENNA__620__I
*1430 ANTENNA__621__I0
*1431 ANTENNA__623__I
*1432 ANTENNA__624__I
*1433 ANTENNA__625__I1
*1434 ANTENNA__625__S
*1435 ANTENNA__627__I1
*1436 ANTENNA__627__S
*1437 ANTENNA__629__I1
*1438 ANTENNA__629__S
*1439 ANTENNA__631__I1
*1440 ANTENNA__631__S
*1441 ANTENNA__633__I
*1442 ANTENNA__634__I1
*1443 ANTENNA__636__A1
*1444 ANTENNA__636__A2
*1445 ANTENNA__637__A1
*1446 ANTENNA__638__I1
*1447 ANTENNA__640__I1
*1448 ANTENNA__642__A2
*1449 ANTENNA__643__A1
*1450 ANTENNA__644__I1
*1451 ANTENNA__646__I
*1452 ANTENNA__647__I1
*1453 ANTENNA__649__I1
*1454 ANTENNA__651__I
*1455 ANTENNA__652__A1
*1456 ANTENNA__652__A2
*1457 ANTENNA__653__A1
*1458 ANTENNA__653__A2
*1459 ANTENNA__654__I
*1460 ANTENNA__655__A1
*1461 ANTENNA__655__A2
*1462 ANTENNA__656__A1
*1463 ANTENNA__656__A2
*1464 ANTENNA__657__I1
*1465 ANTENNA__659__I1
*1466 ANTENNA__661__I
*1467 ANTENNA__662__I1
*1468 ANTENNA__664__I1
*1469 ANTENNA__666__I1
*1470 ANTENNA__668__I1
*1471 ANTENNA__670__A2
*1472 ANTENNA__671__A1
*1473 ANTENNA__671__A2
*1474 ANTENNA__672__A2
*1475 ANTENNA__673__A1
*1476 ANTENNA__673__A2
*1477 ANTENNA__674__I
*1478 ANTENNA__675__I1
*1479 ANTENNA__675__S
*1480 ANTENNA__677__I
*1481 ANTENNA__678__A2
*1482 ANTENNA__679__A1
*1483 ANTENNA__679__A2
*1484 ANTENNA__680__I1
*1485 ANTENNA__680__S
*1486 ANTENNA__682__I1
*1487 ANTENNA__682__S
*1488 ANTENNA__684__I0
*1489 ANTENNA__684__I1
*1490 ANTENNA__684__S
*1491 ANTENNA__687__A1
*1492 ANTENNA__687__A2
*1493 ANTENNA__689__A1
*1494 ANTENNA__689__A2
*1495 ANTENNA__691__A1
*1496 ANTENNA__691__A2
*1497 ANTENNA__692__CLK
*1498 ANTENNA__693__CLK
*1499 ANTENNA__694__CLK
*1500 ANTENNA__695__CLK
*1501 ANTENNA__696__CLK
*1502 ANTENNA__697__CLK
*1503 ANTENNA__698__CLK
*1504 ANTENNA__699__CLK
*1505 ANTENNA__700__CLK
*1506 ANTENNA__701__CLK
*1507 ANTENNA__702__CLK
*1508 ANTENNA__703__CLK
*1509 ANTENNA__704__CLK
*1510 ANTENNA__705__CLK
*1511 ANTENNA__706__CLK
*1512 ANTENNA__707__CLK
*1513 ANTENNA__708__CLK
*1514 ANTENNA__709__CLK
*1515 ANTENNA__710__CLK
*1516 ANTENNA__711__CLK
*1517 ANTENNA__711__D
*1518 ANTENNA__712__CLK
*1519 ANTENNA__712__D
*1520 ANTENNA__713__CLK
*1521 ANTENNA__713__D
*1522 ANTENNA__714__CLK
*1523 ANTENNA__715__CLK
*1524 ANTENNA__715__D
*1525 ANTENNA__716__CLK
*1526 ANTENNA__717__CLK
*1527 ANTENNA__718__CLK
*1528 ANTENNA__719__CLK
*1529 ANTENNA__720__CLK
*1530 ANTENNA__721__CLK
*1531 ANTENNA__722__CLK
*1532 ANTENNA__723__CLK
*1533 ANTENNA__724__CLK
*1534 ANTENNA__725__CLK
*1535 ANTENNA__726__CLK
*1536 ANTENNA__727__CLK
*1537 ANTENNA__728__CLK
*1538 ANTENNA__729__CLK
*1539 ANTENNA__730__CLK
*1540 ANTENNA__731__CLK
*1541 ANTENNA__732__CLK
*1542 ANTENNA__733__CLK
*1543 ANTENNA__734__CLK
*1544 ANTENNA__735__CLK
*1545 ANTENNA__736__CLK
*1546 ANTENNA__737__CLK
*1547 ANTENNA__738__CLK
*1548 ANTENNA__739__CLK
*1549 ANTENNA__740__CLK
*1550 ANTENNA__741__CLK
*1551 ANTENNA__742__CLK
*1552 ANTENNA__743__CLK
*1553 ANTENNA__744__CLK
*1554 ANTENNA__746__CLK
*1555 ANTENNA__747__CLK
*1556 ANTENNA__752__CLK
*1557 ANTENNA__753__CLK
*1558 ANTENNA__754__CLK
*1559 ANTENNA__755__CLK
*1560 ANTENNA__756__CLK
*1561 ANTENNA__799__I
*1562 ANTENNA__800__I
*1563 ANTENNA__801__I
*1564 ANTENNA__802__I
*1565 ANTENNA__803__I
*1566 ANTENNA__804__I
*1567 ANTENNA__805__I
*1568 ANTENNA__806__I
*1569 ANTENNA__807__I
*1570 ANTENNA__808__I
*1571 ANTENNA__809__I
*1572 ANTENNA__810__I
*1573 ANTENNA__811__I
*1574 ANTENNA__812__I
*1575 ANTENNA__813__I
*1576 ANTENNA__814__I
*1577 ANTENNA__815__I
*1578 ANTENNA__816__I
*1579 ANTENNA__817__I
*1580 ANTENNA__818__I
*1581 ANTENNA__819__I
*1582 ANTENNA__820__I
*1583 ANTENNA__821__I
*1584 ANTENNA__822__I
*1585 ANTENNA__823__I
*1586 ANTENNA__824__I
*1587 ANTENNA__825__I
*1588 ANTENNA__826__I
*1589 ANTENNA__827__I
*1590 ANTENNA__828__I
*1591 ANTENNA__829__I
*1592 ANTENNA__830__I
*1593 ANTENNA__831__I
*1594 ANTENNA__832__I
*1595 ANTENNA__833__I
*1596 ANTENNA__834__I
*1597 ANTENNA__835__I
*1598 ANTENNA__836__I
*1599 ANTENNA__837__I
*1600 ANTENNA__838__I
*1601 ANTENNA__839__I
*1602 ANTENNA__840__I
*1603 ANTENNA__841__I
*1604 ANTENNA__842__I
*1605 ANTENNA__843__I
*1606 ANTENNA__844__I
*1607 ANTENNA__845__I
*1608 ANTENNA__846__I
*1609 ANTENNA__847__I
*1610 ANTENNA__848__I
*1611 ANTENNA__849__I
*1612 ANTENNA__850__I
*1613 ANTENNA__851__I
*1614 ANTENNA__852__I
*1615 ANTENNA__853__I
*1616 ANTENNA__854__I
*1617 ANTENNA__855__I
*1618 ANTENNA__856__I
*1619 ANTENNA__857__I
*1620 ANTENNA__858__I
*1621 ANTENNA__859__I
*1622 ANTENNA__860__I
*1623 ANTENNA__861__I
*1624 ANTENNA__862__I
*1625 ANTENNA__863__I
*1626 ANTENNA__864__I
*1627 ANTENNA__865__I
*1628 ANTENNA__866__I
*1629 ANTENNA__867__I
*1630 ANTENNA_clkbuf_0_wb_clk_i_I
*1631 ANTENNA_clkbuf_3_0__f_wb_clk_i_I
*1632 ANTENNA_clkbuf_3_1__f_wb_clk_i_I
*1633 ANTENNA_clkbuf_3_2__f_wb_clk_i_I
*1634 ANTENNA_clkbuf_3_3__f_wb_clk_i_I
*1635 ANTENNA_clkbuf_3_4__f_wb_clk_i_I
*1636 ANTENNA_clkbuf_3_5__f_wb_clk_i_I
*1637 ANTENNA_clkbuf_3_6__f_wb_clk_i_I
*1638 ANTENNA_clkbuf_3_7__f_wb_clk_i_I
*1639 ANTENNA_input100_I
*1640 ANTENNA_input101_I
*1641 ANTENNA_input102_I
*1642 ANTENNA_input103_I
*1643 ANTENNA_input104_I
*1644 ANTENNA_input10_I
*1645 ANTENNA_input11_I
*1646 ANTENNA_input12_I
*1647 ANTENNA_input13_I
*1648 ANTENNA_input14_I
*1649 ANTENNA_input15_I
*1650 ANTENNA_input16_I
*1651 ANTENNA_input17_I
*1652 ANTENNA_input18_I
*1653 ANTENNA_input19_I
*1654 ANTENNA_input1_I
*1655 ANTENNA_input20_I
*1656 ANTENNA_input21_I
*1657 ANTENNA_input22_I
*1658 ANTENNA_input23_I
*1659 ANTENNA_input24_I
*1660 ANTENNA_input25_I
*1661 ANTENNA_input26_I
*1662 ANTENNA_input27_I
*1663 ANTENNA_input28_I
*1664 ANTENNA_input29_I
*1665 ANTENNA_input2_I
*1666 ANTENNA_input30_I
*1667 ANTENNA_input31_I
*1668 ANTENNA_input32_I
*1669 ANTENNA_input33_I
*1670 ANTENNA_input34_I
*1671 ANTENNA_input35_I
*1672 ANTENNA_input36_I
*1673 ANTENNA_input37_I
*1674 ANTENNA_input38_I
*1675 ANTENNA_input39_I
*1676 ANTENNA_input3_I
*1677 ANTENNA_input40_I
*1678 ANTENNA_input41_I
*1679 ANTENNA_input42_I
*1680 ANTENNA_input43_I
*1681 ANTENNA_input44_I
*1682 ANTENNA_input45_I
*1683 ANTENNA_input46_I
*1684 ANTENNA_input47_I
*1685 ANTENNA_input48_I
*1686 ANTENNA_input49_I
*1687 ANTENNA_input4_I
*1688 ANTENNA_input50_I
*1689 ANTENNA_input51_I
*1690 ANTENNA_input52_I
*1691 ANTENNA_input53_I
*1692 ANTENNA_input54_I
*1693 ANTENNA_input55_I
*1694 ANTENNA_input56_I
*1695 ANTENNA_input57_I