*SPEF "ieee 1481-1999"
*DESIGN "user_project_wrapper"
*DATE "11:11:11 Fri 11 11, 1111"
*VENDOR "OpenRCX"
*PROGRAM "Parallel Extraction"
*VERSION "1.0"
*DESIGN_FLOW "NAME_SCOPE LOCAL" "PIN_CAP NONE"
*DIVIDER /
*DELIMITER :
*BUS_DELIMITER []
*T_UNIT 1 NS
*C_UNIT 1 PF
*R_UNIT 1 OHM
*L_UNIT 1 HENRY

*NAME_MAP
*1 io_in[0]
*2 io_in[10]
*3 io_in[11]
*4 io_in[12]
*5 io_in[13]
*6 io_in[14]
*7 io_in[15]
*8 io_in[16]
*9 io_in[17]
*10 io_in[18]
*11 io_in[19]
*12 io_in[1]
*13 io_in[20]
*14 io_in[21]
*15 io_in[22]
*16 io_in[23]
*17 io_in[24]
*18 io_in[25]
*19 io_in[26]
*20 io_in[27]
*21 io_in[28]
*22 io_in[29]
*23 io_in[2]
*24 io_in[30]
*25 io_in[31]
*26 io_in[32]
*27 io_in[33]
*28 io_in[34]
*29 io_in[35]
*30 io_in[36]
*31 io_in[37]
*32 io_in[3]
*33 io_in[4]
*34 io_in[5]
*35 io_in[6]
*36 io_in[7]
*37 io_in[8]
*38 io_in[9]
*39 io_oeb[0]
*40 io_oeb[10]
*41 io_oeb[11]
*42 io_oeb[12]
*43 io_oeb[13]
*44 io_oeb[14]
*45 io_oeb[15]
*46 io_oeb[16]
*47 io_oeb[17]
*48 io_oeb[18]
*49 io_oeb[19]
*50 io_oeb[1]
*51 io_oeb[20]
*52 io_oeb[21]
*53 io_oeb[22]
*54 io_oeb[23]
*55 io_oeb[24]
*56 io_oeb[25]
*57 io_oeb[26]
*58 io_oeb[27]
*59 io_oeb[28]
*60 io_oeb[29]
*61 io_oeb[2]
*62 io_oeb[30]
*63 io_oeb[31]
*64 io_oeb[32]
*65 io_oeb[33]
*66 io_oeb[34]
*67 io_oeb[35]
*68 io_oeb[36]
*69 io_oeb[37]
*70 io_oeb[3]
*71 io_oeb[4]
*72 io_oeb[5]
*73 io_oeb[6]
*74 io_oeb[7]
*75 io_oeb[8]
*76 io_oeb[9]
*77 io_out[0]
*78 io_out[10]
*79 io_out[11]
*80 io_out[12]
*81 io_out[13]
*82 io_out[14]
*83 io_out[15]
*84 io_out[16]
*85 io_out[17]
*86 io_out[18]
*87 io_out[19]
*88 io_out[1]
*89 io_out[20]
*90 io_out[21]
*91 io_out[22]
*92 io_out[23]
*93 io_out[24]
*94 io_out[25]
*95 io_out[26]
*96 io_out[27]
*97 io_out[28]
*98 io_out[29]
*99 io_out[2]
*100 io_out[30]
*101 io_out[31]
*102 io_out[32]
*103 io_out[33]
*104 io_out[34]
*105 io_out[35]
*106 io_out[36]
*107 io_out[37]
*108 io_out[3]
*109 io_out[4]
*110 io_out[5]
*111 io_out[6]
*112 io_out[7]
*113 io_out[8]
*114 io_out[9]
*115 la_data_in[0]
*116 la_data_in[10]
*117 la_data_in[11]
*118 la_data_in[12]
*119 la_data_in[13]
*120 la_data_in[14]
*121 la_data_in[15]
*122 la_data_in[16]
*123 la_data_in[17]
*124 la_data_in[18]
*125 la_data_in[19]
*126 la_data_in[1]
*127 la_data_in[20]
*128 la_data_in[21]
*129 la_data_in[22]
*130 la_data_in[23]
*131 la_data_in[24]
*132 la_data_in[25]
*133 la_data_in[26]
*134 la_data_in[27]
*135 la_data_in[28]
*136 la_data_in[29]
*137 la_data_in[2]
*138 la_data_in[30]
*139 la_data_in[31]
*140 la_data_in[32]
*141 la_data_in[33]
*142 la_data_in[34]
*143 la_data_in[35]
*144 la_data_in[36]
*145 la_data_in[37]
*146 la_data_in[38]
*147 la_data_in[39]
*148 la_data_in[3]
*149 la_data_in[40]
*150 la_data_in[41]
*151 la_data_in[42]
*152 la_data_in[43]
*153 la_data_in[44]
*154 la_data_in[45]
*155 la_data_in[46]
*156 la_data_in[47]
*157 la_data_in[48]
*158 la_data_in[49]
*159 la_data_in[4]
*160 la_data_in[50]
*161 la_data_in[51]
*162 la_data_in[52]
*163 la_data_in[53]
*164 la_data_in[54]
*165 la_data_in[55]
*166 la_data_in[56]
*167 la_data_in[57]
*168 la_data_in[58]
*169 la_data_in[59]
*170 la_data_in[5]
*171 la_data_in[60]
*172 la_data_in[61]
*173 la_data_in[62]
*174 la_data_in[63]
*175 la_data_in[6]
*176 la_data_in[7]
*177 la_data_in[8]
*178 la_data_in[9]
*179 la_data_out[0]
*180 la_data_out[10]
*181 la_data_out[11]
*182 la_data_out[12]
*183 la_data_out[13]
*184 la_data_out[14]
*185 la_data_out[15]
*186 la_data_out[16]
*187 la_data_out[17]
*188 la_data_out[18]
*189 la_data_out[19]
*190 la_data_out[1]
*191 la_data_out[20]
*192 la_data_out[21]
*193 la_data_out[22]
*194 la_data_out[23]
*195 la_data_out[24]
*196 la_data_out[25]
*197 la_data_out[26]
*198 la_data_out[27]
*199 la_data_out[28]
*200 la_data_out[29]
*201 la_data_out[2]
*202 la_data_out[30]
*203 la_data_out[31]
*204 la_data_out[32]
*205 la_data_out[33]
*206 la_data_out[34]
*207 la_data_out[35]
*208 la_data_out[36]
*209 la_data_out[37]
*210 la_data_out[38]
*211 la_data_out[39]
*212 la_data_out[3]
*213 la_data_out[40]
*214 la_data_out[41]
*215 la_data_out[42]
*216 la_data_out[43]
*217 la_data_out[44]
*218 la_data_out[45]
*219 la_data_out[46]
*220 la_data_out[47]
*221 la_data_out[48]
*222 la_data_out[49]
*223 la_data_out[4]
*224 la_data_out[50]
*225 la_data_out[51]
*226 la_data_out[52]
*227 la_data_out[53]
*228 la_data_out[54]
*229 la_data_out[55]
*230 la_data_out[56]
*231 la_data_out[57]
*232 la_data_out[58]
*233 la_data_out[59]
*234 la_data_out[5]
*235 la_data_out[60]
*236 la_data_out[61]
*237 la_data_out[62]
*238 la_data_out[63]
*239 la_data_out[6]
*240 la_data_out[7]
*241 la_data_out[8]
*242 la_data_out[9]
*243 la_oenb[0]
*244 la_oenb[10]
*245 la_oenb[11]
*246 la_oenb[12]
*247 la_oenb[13]
*248 la_oenb[14]
*249 la_oenb[15]
*250 la_oenb[16]
*251 la_oenb[17]
*252 la_oenb[18]
*253 la_oenb[19]
*254 la_oenb[1]
*255 la_oenb[20]
*256 la_oenb[21]
*257 la_oenb[22]
*258 la_oenb[23]
*259 la_oenb[24]
*260 la_oenb[25]
*261 la_oenb[26]
*262 la_oenb[27]
*263 la_oenb[28]
*264 la_oenb[29]
*265 la_oenb[2]
*266 la_oenb[30]
*267 la_oenb[31]
*268 la_oenb[32]
*269 la_oenb[33]
*270 la_oenb[34]
*271 la_oenb[35]
*272 la_oenb[36]
*273 la_oenb[37]
*274 la_oenb[38]
*275 la_oenb[39]
*276 la_oenb[3]
*277 la_oenb[40]
*278 la_oenb[41]
*279 la_oenb[42]
*280 la_oenb[43]
*281 la_oenb[44]
*282 la_oenb[45]
*283 la_oenb[46]
*284 la_oenb[47]
*285 la_oenb[48]
*286 la_oenb[49]
*287 la_oenb[4]
*288 la_oenb[50]
*289 la_oenb[51]
*290 la_oenb[52]
*291 la_oenb[53]
*292 la_oenb[54]
*293 la_oenb[55]
*294 la_oenb[56]
*295 la_oenb[57]
*296 la_oenb[58]
*297 la_oenb[59]
*298 la_oenb[5]
*299 la_oenb[60]
*300 la_oenb[61]
*301 la_oenb[62]
*302 la_oenb[63]
*303 la_oenb[6]
*304 la_oenb[7]
*305 la_oenb[8]
*306 la_oenb[9]
*307 user_clock2
*308 user_irq[0]
*309 user_irq[1]
*310 user_irq[2]
*313 wb_clk_i
*314 wb_rst_i
*315 wbs_ack_o
*316 wbs_adr_i[0]
*317 wbs_adr_i[10]
*318 wbs_adr_i[11]
*319 wbs_adr_i[12]
*320 wbs_adr_i[13]
*321 wbs_adr_i[14]
*322 wbs_adr_i[15]
*323 wbs_adr_i[16]
*324 wbs_adr_i[17]
*325 wbs_adr_i[18]
*326 wbs_adr_i[19]
*327 wbs_adr_i[1]
*328 wbs_adr_i[20]
*329 wbs_adr_i[21]
*330 wbs_adr_i[22]
*331 wbs_adr_i[23]
*332 wbs_adr_i[24]
*333 wbs_adr_i[25]
*334 wbs_adr_i[26]
*335 wbs_adr_i[27]
*336 wbs_adr_i[28]
*337 wbs_adr_i[29]
*338 wbs_adr_i[2]
*339 wbs_adr_i[30]
*340 wbs_adr_i[31]
*341 wbs_adr_i[3]
*342 wbs_adr_i[4]
*343 wbs_adr_i[5]
*344 wbs_adr_i[6]
*345 wbs_adr_i[7]
*346 wbs_adr_i[8]
*347 wbs_adr_i[9]
*348 wbs_cyc_i
*349 wbs_dat_i[0]
*350 wbs_dat_i[10]
*351 wbs_dat_i[11]
*352 wbs_dat_i[12]
*353 wbs_dat_i[13]
*354 wbs_dat_i[14]
*355 wbs_dat_i[15]
*356 wbs_dat_i[16]
*357 wbs_dat_i[17]
*358 wbs_dat_i[18]
*359 wbs_dat_i[19]
*360 wbs_dat_i[1]
*361 wbs_dat_i[20]
*362 wbs_dat_i[21]
*363 wbs_dat_i[22]
*364 wbs_dat_i[23]
*365 wbs_dat_i[24]
*366 wbs_dat_i[25]
*367 wbs_dat_i[26]
*368 wbs_dat_i[27]
*369 wbs_dat_i[28]
*370 wbs_dat_i[29]
*371 wbs_dat_i[2]
*372 wbs_dat_i[30]
*373 wbs_dat_i[31]
*374 wbs_dat_i[3]
*375 wbs_dat_i[4]
*376 wbs_dat_i[5]
*377 wbs_dat_i[6]
*378 wbs_dat_i[7]
*379 wbs_dat_i[8]
*380 wbs_dat_i[9]
*381 wbs_dat_o[0]
*382 wbs_dat_o[10]
*383 wbs_dat_o[11]
*384 wbs_dat_o[12]
*385 wbs_dat_o[13]
*386 wbs_dat_o[14]
*387 wbs_dat_o[15]
*388 wbs_dat_o[16]
*389 wbs_dat_o[17]
*390 wbs_dat_o[18]
*391 wbs_dat_o[19]
*392 wbs_dat_o[1]
*393 wbs_dat_o[20]
*394 wbs_dat_o[21]
*395 wbs_dat_o[22]
*396 wbs_dat_o[23]
*397 wbs_dat_o[24]
*398 wbs_dat_o[25]
*399 wbs_dat_o[26]
*400 wbs_dat_o[27]
*401 wbs_dat_o[28]
*402 wbs_dat_o[29]
*403 wbs_dat_o[2]
*404 wbs_dat_o[30]
*405 wbs_dat_o[31]
*406 wbs_dat_o[3]
*407 wbs_dat_o[4]
*408 wbs_dat_o[5]
*409 wbs_dat_o[6]
*410 wbs_dat_o[7]
*411 wbs_dat_o[8]
*412 wbs_dat_o[9]
*413 wbs_sel_i[0]
*414 wbs_sel_i[1]
*415 wbs_sel_i[2]
*416 wbs_sel_i[3]
*417 wbs_stb_i
*418 wbs_we_i
*419 mprj

*PORTS
io_in[0] I
io_in[10] I
io_in[11] I
io_in[12] I
io_in[13] I
io_in[14] I
io_in[15] I
io_in[16] I
io_in[17] I
io_in[18] I
io_in[19] I
io_in[1] I
io_in[20] I
io_in[21] I
io_in[22] I
io_in[23] I
io_in[24] I
io_in[25] I
io_in[26] I
io_in[27] I
io_in[28] I
io_in[29] I
io_in[2] I
io_in[30] I
io_in[31] I
io_in[32] I
io_in[33] I
io_in[34] I
io_in[35] I
io_in[36] I
io_in[37] I
io_in[3] I
io_in[4] I
io_in[5] I
io_in[6] I
io_in[7] I
io_in[8] I
io_in[9] I
io_oeb[0] O
io_oeb[10] O
io_oeb[11] O
io_oeb[12] O
io_oeb[13] O
io_oeb[14] O
io_oeb[15] O
io_oeb[16] O
io_oeb[17] O
io_oeb[18] O
io_oeb[19] O
io_oeb[1] O
io_oeb[20] O
io_oeb[21] O
io_oeb[22] O
io_oeb[23] O
io_oeb[24] O
io_oeb[25] O
io_oeb[26] O
io_oeb[27] O
io_oeb[28] O
io_oeb[29] O
io_oeb[2] O
io_oeb[30] O
io_oeb[31] O
io_oeb[32] O
io_oeb[33] O
io_oeb[34] O
io_oeb[35] O
io_oeb[36] O
io_oeb[37] O
io_oeb[3] O
io_oeb[4] O
io_oeb[5] O
io_oeb[6] O
io_oeb[7] O
io_oeb[8] O
io_oeb[9] O
io_out[0] O
io_out[10] O
io_out[11] O
io_out[12] O
io_out[13] O
io_out[14] O
io_out[15] O
io_out[16] O
io_out[17] O
io_out[18] O
io_out[19] O
io_out[1] O
io_out[20] O
io_out[21] O
io_out[22] O
io_out[23] O
io_out[24] O
io_out[25] O
io_out[26] O
io_out[27] O
io_out[28] O
io_out[29] O
io_out[2] O
io_out[30] O
io_out[31] O
io_out[32] O
io_out[33] O
io_out[34] O
io_out[35] O
io_out[36] O
io_out[37] O
io_out[3] O
io_out[4] O
io_out[5] O
io_out[6] O
io_out[7] O
io_out[8] O
io_out[9] O
la_data_in[0] I
la_data_in[10] I
la_data_in[11] I
la_data_in[12] I
la_data_in[13] I
la_data_in[14] I
la_data_in[15] I
la_data_in[16] I
la_data_in[17] I
la_data_in[18] I
la_data_in[19] I
la_data_in[1] I
la_data_in[20] I
la_data_in[21] I
la_data_in[22] I
la_data_in[23] I
la_data_in[24] I
la_data_in[25] I
la_data_in[26] I
la_data_in[27] I
la_data_in[28] I
la_data_in[29] I
la_data_in[2] I
la_data_in[30] I
la_data_in[31] I
la_data_in[32] I
la_data_in[33] I
la_data_in[34] I
la_data_in[35] I
la_data_in[36] I
la_data_in[37] I
la_data_in[38] I
la_data_in[39] I
la_data_in[3] I
la_data_in[40] I
la_data_in[41] I
la_data_in[42] I
la_data_in[43] I
la_data_in[44] I
la_data_in[45] I
la_data_in[46] I
la_data_in[47] I
la_data_in[48] I
la_data_in[49] I
la_data_in[4] I
la_data_in[50] I
la_data_in[51] I
la_data_in[52] I
la_data_in[53] I
la_data_in[54] I
la_data_in[55] I
la_data_in[56] I
la_data_in[57] I
la_data_in[58] I
la_data_in[59] I
la_data_in[5] I
la_data_in[60] I
la_data_in[61] I
la_data_in[62] I
la_data_in[63] I
la_data_in[6] I
la_data_in[7] I
la_data_in[8] I
la_data_in[9] I
la_data_out[0] O
la_data_out[10] O
la_data_out[11] O
la_data_out[12] O
la_data_out[13] O
la_data_out[14] O
la_data_out[15] O
la_data_out[16] O
la_data_out[17] O
la_data_out[18] O
la_data_out[19] O
la_data_out[1] O
la_data_out[20] O
la_data_out[21] O
la_data_out[22] O
la_data_out[23] O
la_data_out[24] O
la_data_out[25] O
la_data_out[26] O
la_data_out[27] O
la_data_out[28] O
la_data_out[29] O
la_data_out[2] O
la_data_out[30] O
la_data_out[31] O
la_data_out[32] O
la_data_out[33] O
la_data_out[34] O
la_data_out[35] O
la_data_out[36] O
la_data_out[37] O
la_data_out[38] O
la_data_out[39] O
la_data_out[3] O
la_data_out[40] O
la_data_out[41] O
la_data_out[42] O
la_data_out[43] O
la_data_out[44] O
la_data_out[45] O
la_data_out[46] O
la_data_out[47] O
la_data_out[48] O
la_data_out[49] O
la_data_out[4] O
la_data_out[50] O
la_data_out[51] O
la_data_out[52] O
la_data_out[53] O
la_data_out[54] O
la_data_out[55] O
la_data_out[56] O
la_data_out[57] O
la_data_out[58] O
la_data_out[59] O
la_data_out[5] O
la_data_out[60] O
la_data_out[61] O
la_data_out[62] O
la_data_out[63] O
la_data_out[6] O
la_data_out[7] O
la_data_out[8] O
la_data_out[9] O
la_oenb[0] I
la_oenb[10] I
la_oenb[11] I
la_oenb[12] I
la_oenb[13] I
la_oenb[14] I
la_oenb[15] I
la_oenb[16] I
la_oenb[17] I
la_oenb[18] I
la_oenb[19] I
la_oenb[1] I
la_oenb[20] I
la_oenb[21] I
la_oenb[22] I
la_oenb[23] I
la_oenb[24] I
la_oenb[25] I
la_oenb[26] I
la_oenb[27] I
la_oenb[28] I
la_oenb[29] I
la_oenb[2] I
la_oenb[30] I
la_oenb[31] I
la_oenb[32] I
la_oenb[33] I
la_oenb[34] I
la_oenb[35] I
la_oenb[36] I
la_oenb[37] I
la_oenb[38] I
la_oenb[39] I
la_oenb[3] I
la_oenb[40] I
la_oenb[41] I
la_oenb[42] I
la_oenb[43] I
la_oenb[44] I
la_oenb[45] I
la_oenb[46] I
la_oenb[47] I
la_oenb[48] I
la_oenb[49] I
la_oenb[4] I
la_oenb[50] I
la_oenb[51] I
la_oenb[52] I
la_oenb[53] I
la_oenb[54] I
la_oenb[55] I
la_oenb[56] I
la_oenb[57] I
la_oenb[58] I
la_oenb[59] I
la_oenb[5] I
la_oenb[60] I
la_oenb[61] I
la_oenb[62] I
la_oenb[63] I
la_oenb[6] I
la_oenb[7] I
la_oenb[8] I
la_oenb[9] I
user_clock2 I
user_irq[0] O
user_irq[1] O
user_irq[2] O
wb_clk_i I
wb_rst_i I
wbs_ack_o O
wbs_adr_i[0] I
wbs_adr_i[10] I
wbs_adr_i[11] I
wbs_adr_i[12] I
wbs_adr_i[13] I
wbs_adr_i[14] I
wbs_adr_i[15] I
wbs_adr_i[16] I
wbs_adr_i[17] I
wbs_adr_i[18] I
wbs_adr_i[19] I
wbs_adr_i[1] I
wbs_adr_i[20] I
wbs_adr_i[21] I
wbs_adr_i[22] I
wbs_adr_i[23] I
wbs_adr_i[24] I
wbs_adr_i[25] I
wbs_adr_i[26] I
wbs_adr_i[27] I
wbs_adr_i[28] I
wbs_adr_i[29] I
wbs_adr_i[2] I
wbs_adr_i[30] I
wbs_adr_i[31] I
wbs_adr_i[3] I
wbs_adr_i[4] I
wbs_adr_i[5] I
wbs_adr_i[6] I
wbs_adr_i[7] I
wbs_adr_i[8] I
wbs_adr_i[9] I
wbs_cyc_i I
wbs_dat_i[0] I
wbs_dat_i[10] I
wbs_dat_i[11] I
wbs_dat_i[12] I
wbs_dat_i[13] I
wbs_dat_i[14] I
wbs_dat_i[15] I
wbs_dat_i[16] I
wbs_dat_i[17] I
wbs_dat_i[18] I
wbs_dat_i[19] I
wbs_dat_i[1] I
wbs_dat_i[20] I
wbs_dat_i[21] I
wbs_dat_i[22] I
wbs_dat_i[23] I
wbs_dat_i[24] I
wbs_dat_i[25] I
wbs_dat_i[26] I
wbs_dat_i[27] I
wbs_dat_i[28] I
wbs_dat_i[29] I
wbs_dat_i[2] I
wbs_dat_i[30] I
wbs_dat_i[31] I
wbs_dat_i[3] I
wbs_dat_i[4] I
wbs_dat_i[5] I
wbs_dat_i[6] I
wbs_dat_i[7] I
wbs_dat_i[8] I
wbs_dat_i[9] I
wbs_dat_o[0] O
wbs_dat_o[10] O
wbs_dat_o[11] O
wbs_dat_o[12] O
wbs_dat_o[13] O
wbs_dat_o[14] O
wbs_dat_o[15] O
wbs_dat_o[16] O
wbs_dat_o[17] O
wbs_dat_o[18] O
wbs_dat_o[19] O
wbs_dat_o[1] O
wbs_dat_o[20] O
wbs_dat_o[21] O
wbs_dat_o[22] O
wbs_dat_o[23] O
wbs_dat_o[24] O
wbs_dat_o[25] O
wbs_dat_o[26] O
wbs_dat_o[27] O
wbs_dat_o[28] O
wbs_dat_o[29] O
wbs_dat_o[2] O
wbs_dat_o[30] O
wbs_dat_o[31] O
wbs_dat_o[3] O
wbs_dat_o[4] O
wbs_dat_o[5] O
wbs_dat_o[6] O
wbs_dat_o[7] O
wbs_dat_o[8] O
wbs_dat_o[9] O
wbs_sel_i[0] I
wbs_sel_i[1] I
wbs_sel_i[2] I
wbs_sel_i[3] I
wbs_stb_i I
wbs_we_i I

*D_NET *1 0.254971
*CONN
*P io_in[0] I
*I *419:io_in[0] I *D user_proj_example
*CAP
1 io_in[0] 0.003574
2 *419:io_in[0] 0.000200859
3 *1:18 0.0394974
4 *1:17 0.0392965
5 *1:15 0.0701712
6 *1:14 0.0701712
7 *1:12 0.0050057
8 *1:11 0.00857969
9 *1:12 *174:7 0
10 *1:12 *174:9 0
11 *1:18 *27:16 0
12 *1:18 *315:11 0
13 *1:18 *355:9 0.0184741
14 *1:18 *386:13 0
*RES
1 io_in[0] *1:11 43.245 
2 *1:11 *1:12 49.95 
3 *1:12 *1:14 4.5 
4 *1:14 *1:15 730.35 
5 *1:15 *1:17 4.5 
6 *1:17 *1:18 402.57 
7 *1:18 *419:io_in[0] 2.025 
*END

*D_NET *2 0.262533
*CONN
*P io_in[10] I
*I *419:io_in[10] I *D user_proj_example
*CAP
1 io_in[10] 0.000221684
2 *419:io_in[10] 0.000777492
3 *2:11 0.0603505
4 *2:10 0.059573
5 *2:8 0.00974988
6 *2:7 0.00997156
7 *419:io_in[10] *40:13 0
8 *2:8 *3:8 0.0181672
9 *2:8 *34:8 0.0065672
10 *2:8 *38:8 0.0537038
11 *2:8 *71:17 0.012091
12 *2:8 *99:13 8.9762e-05
13 *2:11 *419:io_in[22] 0.0128691
14 *2:11 *419:io_in[26] 0
15 *2:11 *419:io_in[30] 0
16 *2:11 *12:11 0
17 *2:11 *23:11 0
18 *2:11 *27:19 0.015168
19 *2:11 *47:10 0.00195208
20 *2:11 *60:10 0.00128069
*RES
1 io_in[10] *2:7 6.885 
2 *2:7 *2:8 177.57 
3 *2:8 *2:10 4.5 
4 *2:10 *2:11 688.41 
5 *2:11 *419:io_in[10] 11.385 
*END

*D_NET *3 0.364552
*CONN
*P io_in[11] I
*I *419:io_in[11] I *D user_proj_example
*CAP
1 io_in[11] 0.000253534
2 *419:io_in[11] 0.00273962
3 *3:11 0.0633302
4 *3:10 0.0605905
5 *3:8 0.00568114
6 *3:7 0.00593467
7 *419:io_in[11] *78:10 0
8 *419:io_in[11] *78:11 0.000558519
9 *3:8 *6:8 0
10 *3:8 *7:11 0.147977
11 *3:8 *38:8 0.0537038
12 *3:8 *99:13 0.000576932
13 *3:11 *50:10 0
14 *3:11 *62:14 0.00503885
15 *3:11 *71:14 0
16 *2:8 *3:8 0.0181672
*RES
1 io_in[11] *3:7 7.245 
2 *3:7 *3:8 222.39 
3 *3:8 *3:10 4.5 
4 *3:10 *3:11 681.93 
5 *3:11 *419:io_in[11] 31.995 
*END

*D_NET *4 0.187414
*CONN
*P io_in[12] I
*I *419:io_in[12] I *D user_proj_example
*CAP
1 io_in[12] 0.000125412
2 *419:io_in[12] 9.37343e-05
3 *4:16 0.0315141
4 *4:15 0.0314203
5 *4:13 0.0620675
6 *4:11 0.0621929
*RES
1 io_in[12] *4:11 2.115 
2 *4:11 *4:13 676.53 
3 *4:13 *4:15 4.5 
4 *4:15 *4:16 310.77 
5 *4:16 *419:io_in[12] 0.945 
*END

*D_NET *5 0.645999
*CONN
*P io_in[13] I
*I *419:io_in[13] I *D user_proj_example
*CAP
1 io_in[13] 0.000315545
2 *419:io_in[13] 0.00368043
3 *5:11 0.0686619
4 *5:10 0.0649815
5 *5:8 0.00403987
6 *5:7 0.00435541
7 *419:io_in[13] *76:17 0
8 *5:8 *6:8 0.00107408
9 *5:8 *7:11 0.00605574
10 *5:8 *42:13 0.214876
11 *5:8 *81:11 0.225679
12 *5:11 io_oeb[7] 0
13 *5:11 *16:16 0.0522796
14 *5:11 *58:12 0
15 *5:11 *74:10 0
*RES
1 io_in[13] *5:7 7.785 
2 *5:7 *5:8 341.73 
3 *5:8 *5:10 4.5 
4 *5:10 *5:11 665.19 
5 *5:11 *419:io_in[13] 38.835 
*END

*D_NET *6 0.811069
*CONN
*P io_in[14] I
*I *419:io_in[14] I *D user_proj_example
*CAP
1 io_in[14] 0.000438848
2 *419:io_in[14] 6.46371e-05
3 *6:11 0.0519618
4 *6:10 0.0518971
5 *6:8 0.00641232
6 *6:7 0.00685117
7 *419:io_in[14] *35:19 9.06641e-06
8 *419:io_in[14] *77:10 0
9 *6:8 *7:11 9.20636e-05
10 *6:8 *12:8 0.00497143
11 *6:8 *44:17 0.283863
12 *6:8 *50:13 0.000736509
13 *6:8 *77:13 0.00128889
14 *6:8 *81:11 0.000368254
15 *6:8 *82:17 0.267291
16 *6:8 *88:13 0.00368255
17 *6:8 *99:13 0.000268519
18 *6:11 *419:io_in[37] 0.00103202
19 *6:11 *35:19 0.127821
20 *6:11 *68:11 0.000944979
21 *6:11 *77:10 0
22 *3:8 *6:8 0
23 *5:8 *6:8 0.00107408
*RES
1 io_in[14] *6:7 8.505 
2 *6:7 *6:8 440.91 
3 *6:8 *6:10 4.5 
4 *6:10 *6:11 656.46 
5 *6:11 *419:io_in[14] 5.31 
*END

*D_NET *7 0.620199
*CONN
*P io_in[15] I
*I *419:io_in[15] I *D user_proj_example
*CAP
1 io_in[15] 0.00218703
2 *419:io_in[15] 0.00357719
3 *7:14 0.0582422
4 *7:13 0.054665
5 *7:11 0.0176723
6 *7:10 0.0198594
7 *419:io_in[15] *82:11 0
8 *7:11 *42:13 0.214876
9 *7:11 *43:15 0.00211235
10 *7:11 *44:17 0
11 *7:11 *81:11 0.00289693
12 *7:11 *82:17 0.00325905
13 *7:14 *40:14 0.0867267
14 *7:14 *99:10 0
15 *3:8 *7:11 0.147977
16 *5:8 *7:11 0.00605574
17 *6:8 *7:11 9.20636e-05
*RES
1 io_in[15] *7:10 32.355 
2 *7:10 *7:11 453.15 
3 *7:11 *7:13 4.5 
4 *7:13 *7:14 652.05 
5 *7:14 *419:io_in[15] 37.935 
*END

*D_NET *8 0.195985
*CONN
*P io_in[16] I
*I *419:io_in[16] I *D user_proj_example
*CAP
1 io_in[16] 0.000194772
2 *419:io_in[16] 0.00250878
3 *8:21 0.00657875
4 *8:16 0.052041
5 *8:15 0.0479711
6 *8:13 0.0432478
7 *8:11 0.0434426
*RES
1 io_in[16] *8:11 2.655 
2 *8:11 *8:13 432.27 
3 *8:13 *8:15 4.5 
4 *8:15 *8:16 521.19 
5 *8:16 *8:21 44.01 
6 *8:21 *419:io_in[16] 23.085 
*END

*D_NET *9 0.183365
*CONN
*P io_in[17] I
*I *419:io_in[17] I *D user_proj_example
*CAP
1 io_in[17] 0.00109984
2 *419:io_in[17] 9.37343e-05
3 *9:17 0.00680191
4 *9:16 0.00670818
5 *9:14 0.0416915
6 *9:13 0.0416915
7 *9:11 0.0420891
8 *9:10 0.0431889
*RES
1 io_in[17] *9:10 19.935 
2 *9:10 *9:11 420.75 
3 *9:11 *9:13 4.5 
4 *9:13 *9:14 406.35 
5 *9:14 *9:16 4.5 
6 *9:16 *9:17 63.63 
7 *9:17 *419:io_in[17] 0.945 
*END

*D_NET *10 0.332483
*CONN
*P io_in[18] I
*I *419:io_in[18] I *D user_proj_example
*CAP
1 io_in[18] 0.000383769
2 *419:io_in[18] 4.01718e-05
3 *10:11 0.0494301
4 *10:10 0.0493899
5 *10:8 0.0149356
6 *10:7 0.0153194
7 *10:8 *84:10 0.202984
*RES
1 io_in[18] *10:7 8.325 
2 *10:7 *10:8 293.85 
3 *10:8 *10:10 4.5 
4 *10:10 *10:11 489.33 
5 *10:11 *419:io_in[18] 0.405 
*END

*D_NET *11 0.136615
*CONN
*P io_in[19] I
*I *419:io_in[19] I *D user_proj_example
*CAP
1 io_in[19] 0.00014121
2 *419:io_in[19] 0.00184385
3 *11:19 0.00644838
4 *11:16 0.021468
5 *11:15 0.0168635
6 *11:13 0.0427121
7 *11:11 0.0428533
8 *419:io_in[19] *48:11 0.00409172
9 *419:io_in[19] *86:10 0.000193334
10 *11:19 *48:11 0
*RES
1 io_in[19] *11:11 2.115 
2 *11:11 *11:13 426.87 
3 *11:13 *11:15 4.5 
4 *11:15 *11:16 180.99 
5 *11:16 *11:19 49.14 
6 *11:19 *419:io_in[19] 24.615 
*END

*D_NET *12 0.757721
*CONN
*P io_in[1] I
*I *419:io_in[1] I *D user_proj_example
*CAP
1 io_in[1] 0.000363322
2 *419:io_in[1] 0.000617527
3 *12:11 0.0613823
4 *12:10 0.0607647
5 *12:8 0.00596862
6 *12:7 0.00633194
7 *419:io_in[1] *50:9 0
8 *419:io_in[1] *77:9 0
9 *12:8 *77:13 0.0440883
10 *12:8 *88:13 0.254525
11 *12:8 *172:11 0.131774
12 *12:8 *309:11 0
13 *12:11 *25:11 0.156713
14 *12:11 *27:19 0.000348106
15 *12:11 *78:10 0.00167814
16 *12:11 *86:10 0.00279712
17 *12:11 *91:8 0.0206257
18 *12:11 *92:8 0.000761482
19 *12:11 *93:8 0.000587429
20 *12:11 *95:8 0.000522204
21 *12:11 *97:8 0
22 *12:11 *98:8 0
23 *12:11 *102:8 0.00290103
24 *2:11 *12:11 0
25 *6:8 *12:8 0.00497143
*RES
1 io_in[1] *12:7 8.325 
2 *12:7 *12:8 394.47 
3 *12:8 *12:10 4.5 
4 *12:10 *12:11 755.01 
5 *12:11 *419:io_in[1] 10.125 
*END

*D_NET *13 0.112642
*CONN
*P io_in[20] I
*I *419:io_in[20] I *D user_proj_example
*CAP
1 io_in[20] 0.0348702
2 *419:io_in[20] 0.00259963
3 *13:11 0.0150933
4 *13:10 0.0124937
5 *13:8 0.00635751
6 *13:7 0.00635751
7 *13:5 0.0348702
8 *13:11 *15:11 0
*RES
1 io_in[20] *13:5 348.525 
2 *13:5 *13:7 4.5 
3 *13:7 *13:8 67.59 
4 *13:8 *13:10 4.5 
5 *13:10 *13:11 122.94 
6 *13:11 *419:io_in[20] 23.895 
*END

*D_NET *14 0.108699
*CONN
*P io_in[21] I
*I *419:io_in[21] I *D user_proj_example
*CAP
1 io_in[21] 0.00102016
2 *419:io_in[21] 0.00254139
3 *14:17 0.0193663
4 *14:16 0.0168249
5 *14:14 0.00414818
6 *14:11 0.0338586
7 *14:10 0.0307306
8 *14:10 *15:8 0.000208528
9 *14:11 *45:11 0
*RES
1 io_in[21] *14:10 19.935 
2 *14:10 *14:11 296.55 
3 *14:11 *14:14 49.23 
4 *14:14 *14:16 4.5 
5 *14:16 *14:17 166.14 
6 *14:17 *419:io_in[21] 23.355 
*END

*D_NET *15 0.144929
*CONN
*P io_in[22] I
*I *419:io_in[22] I *D user_proj_example
*CAP
1 io_in[22] 0.000812269
2 *419:io_in[22] 0.00181187
3 *15:11 0.0493853
4 *15:10 0.0475734
5 *15:8 0.0128509
6 *15:7 0.0136632
7 *419:io_in[22] *23:11 0
8 *419:io_in[22] *53:9 0
9 *15:8 io_oeb[20] 0.00022666
10 *15:8 io_out[21] 0.000244777
11 *15:8 *47:14 0.00192726
12 *15:11 *87:9 0.00335521
13 *15:11 *87:13 0
14 *2:11 *419:io_in[22] 0.0128691
15 *13:11 *15:11 0
16 *14:10 *15:8 0.000208528
*RES
1 io_in[22] *15:7 12.645 
2 *15:7 *15:8 143.55 
3 *15:8 *15:10 4.5 
4 *15:10 *15:11 477.99 
5 *15:11 *419:io_in[22] 34.695 
*END

*D_NET *16 0.203426
*CONN
*P io_in[23] I
*I *419:io_in[23] I *D user_proj_example
*CAP
1 io_in[23] 0.000270652
2 *419:io_in[23] 0.00372435
3 *16:16 0.0293551
4 *16:15 0.0256308
5 *16:13 0.0459473
6 *16:11 0.0462179
7 *419:io_in[23] *17:16 0
8 *419:io_in[23] *56:13 0
9 *16:16 *74:10 0
10 *5:11 *16:16 0.0522796
*RES
1 io_in[23] *16:11 3.195 
2 *16:11 *16:13 459.09 
3 *16:13 *16:15 4.5 
4 *16:15 *16:16 278.19 
5 *16:16 *419:io_in[23] 39.015 
*END

*D_NET *17 0.177718
*CONN
*P io_in[24] I
*I *419:io_in[24] I *D user_proj_example
*CAP
1 io_in[24] 0.000142137
2 *419:io_in[24] 0.00243662
3 *17:16 0.0488393
4 *17:15 0.0464027
5 *17:13 0.0370443
6 *17:11 0.0371864
7 *419:io_in[24] *92:7 0
8 *419:io_in[24] *94:12 9.06641e-06
9 *419:io_in[24] *110:10 0.00565745
10 *419:io_in[23] *17:16 0
*RES
1 io_in[24] *17:11 1.935 
2 *17:11 *17:13 362.61 
3 *17:13 *17:15 4.5 
4 *17:15 *17:16 461.25 
5 *17:16 *419:io_in[24] 35.505 
*END

*D_NET *18 0.160751
*CONN
*P io_in[25] I
*I *419:io_in[25] I *D user_proj_example
*CAP
1 io_in[25] 8.93818e-05
2 *419:io_in[25] 0.0025847
3 *18:16 0.0416966
4 *18:15 0.0391119
5 *18:13 0.0385895
6 *18:11 0.0386788
7 *419:io_in[25] *93:7 0
8 *18:16 *19:12 0
*RES
1 io_in[25] *18:11 1.395 
2 *18:11 *18:13 377.55 
3 *18:13 *18:15 4.5 
4 *18:15 *18:16 388.98 
5 *18:16 *419:io_in[25] 23.895 
*END

*D_NET *19 0.147688
*CONN
*P io_in[26] I
*I *419:io_in[26] I *D user_proj_example
*CAP
1 io_in[26] 0.00124651
2 *419:io_in[26] 0.00158098
3 *19:12 0.035433
4 *19:11 0.033852
5 *19:9 0.0333414
6 *19:7 0.0345879
7 *419:io_in[26] *23:11 0.00764655
8 *419:io_in[26] *57:9 0
9 *2:11 *419:io_in[26] 0
10 *18:16 *19:12 0
*RES
1 io_in[26] *19:7 13.185 
2 *19:7 *19:9 363.24 
3 *19:9 *19:11 4.5 
4 *19:11 *19:12 335.07 
5 *19:12 *419:io_in[26] 28.215 
*END

*D_NET *20 0.129647
*CONN
*P io_in[27] I
*I *419:io_in[27] I *D user_proj_example
*CAP
1 io_in[27] 0.000253241
2 *419:io_in[27] 0.0027964
3 *20:16 0.0278391
4 *20:15 0.0250427
5 *20:13 0.0361761
6 *20:11 0.0364294
7 *419:io_in[27] *22:19 5.28443e-05
8 *419:io_in[27] *71:14 0.00105689
9 *419:io_in[27] *95:7 0
*RES
1 io_in[27] *20:11 3.015 
2 *20:11 *20:13 392.31 
3 *20:13 *20:15 4.5 
4 *20:15 *20:16 248.67 
5 *20:16 *419:io_in[27] 35.865 
*END

*D_NET *21 0.117407
*CONN
*P io_in[28] I
*I *419:io_in[28] I *D user_proj_example
*CAP
1 io_in[28] 0.000182736
2 *419:io_in[28] 0.00130905
3 *21:16 0.0210514
4 *21:15 0.0197423
5 *21:13 0.0369408
6 *21:11 0.0371235
7 *419:io_in[28] *32:11 0.00105689
8 *419:io_in[28] *60:11 0
9 *21:13 *78:14 0
10 *21:16 *96:12 0
*RES
1 io_in[28] *21:11 2.475 
2 *21:11 *21:13 400.41 
3 *21:13 *21:15 4.5 
4 *21:15 *21:16 194.67 
5 *21:16 *419:io_in[28] 21.825 
*END

*D_NET *22 0.134429
*CONN
*P io_in[29] I
*I *419:io_in[29] I *D user_proj_example
*CAP
1 io_in[29] 0.000132518
2 *419:io_in[29] 0.00262064
3 *22:19 0.00510447
4 *22:18 0.00248383
5 *22:16 0.0116567
6 *22:15 0.0116567
7 *22:13 0.0332014
8 *22:11 0.0333339
9 *419:io_in[29] *97:7 0.00110476
10 *419:io_in[29] *100:15 0.000193334
11 *22:19 *44:14 0.0328878
12 *22:19 *71:14 0
13 *419:io_in[27] *22:19 5.28443e-05
*RES
1 io_in[29] *22:11 1.935 
2 *22:11 *22:13 359.91 
3 *22:13 *22:15 4.5 
4 *22:15 *22:16 114.75 
5 *22:16 *22:18 4.5 
6 *22:18 *22:19 47.61 
7 *22:19 *419:io_in[29] 30.375 
*END

*D_NET *23 0.460882
*CONN
*P io_in[2] I
*I *419:io_in[2] I *D user_proj_example
*CAP
1 io_in[2] 0.000189833
2 *419:io_in[2] 0.00100686
3 *23:11 0.0573555
4 *23:10 0.0563487
5 *23:8 0.0198964
6 *23:7 0.0200863
7 *23:8 *33:8 0.0042247
8 *23:8 *34:8 0.097035
9 *23:8 *70:12 4.83334e-05
10 *23:8 *71:17 0.00289693
11 *23:8 *309:11 0.0172957
12 *23:11 *419:io_in[30] 0.00242462
13 *23:11 *101:10 0.154864
14 *23:11 *109:10 0.0195626
15 *419:io_in[22] *23:11 0
16 *419:io_in[26] *23:11 0.00764655
17 *2:11 *23:11 0
*RES
1 io_in[2] *23:7 6.525 
2 *23:7 *23:8 333.45 
3 *23:8 *23:10 4.5 
4 *23:10 *23:11 750.15 
5 *23:11 *419:io_in[2] 13.815 
*END

*D_NET *24 0.0944511
*CONN
*P io_in[30] I
*I *419:io_in[30] I *D user_proj_example
*CAP
1 io_in[30] 8.47422e-05
2 *419:io_in[30] 0.00108883
3 *24:16 0.00758316
4 *24:15 0.00649433
5 *24:13 0.0383454
6 *24:11 0.0384301
7 *419:io_in[30] *62:13 0
8 *24:13 *54:12 0
9 *2:11 *419:io_in[30] 0
10 *23:11 *419:io_in[30] 0.00242462
*RES
1 io_in[30] *24:11 1.395 
2 *24:11 *24:13 413.91 
3 *24:13 *24:15 4.5 
4 *24:15 *24:16 62.37 
5 *24:16 *419:io_in[30] 20.655 
*END

*D_NET *25 0.388643
*CONN
*P io_in[31] I
*I *419:io_in[31] I *D user_proj_example
*CAP
1 io_in[31] 0.000891867
2 *419:io_in[31] 0.00062175
3 *25:11 0.0183083
4 *25:10 0.0185784
5 *25:10 *93:8 0
6 *25:10 *95:8 1.2434e-05
7 *25:10 *97:8 2.79764e-05
8 *25:10 *98:8 4.53321e-05
9 *25:10 *98:11 0.000388713
10 *25:11 *91:8 0.00395273
11 *25:11 *92:8 0.00839287
12 *25:11 *93:8 0.00149205
13 *25:11 *102:8 0.179218
14 *12:11 *25:11 0.156713
*RES
1 io_in[31] *25:10 19.035 
2 *25:10 *25:11 417.33 
3 *25:11 *419:io_in[31] 10.305 
*END

*D_NET *26 0.368304
*CONN
*P io_in[32] I
*I *419:io_in[32] I *D user_proj_example
*CAP
1 io_in[32] 0.000240014
2 *419:io_in[32] 0.000121388
3 *26:19 0.00525873
4 *26:18 0.00513734
5 *26:16 0.00654996
6 *26:15 0.00654996
7 *26:13 0.0159378
8 *26:11 0.0161778
9 *26:19 *419:io_in[6] 0.000300746
10 *26:19 *35:19 0.133168
11 *26:19 *105:9 0.178863
*RES
1 io_in[32] *26:11 3.015 
2 *26:11 *26:13 173.61 
3 *26:13 *26:15 4.5 
4 *26:15 *26:16 65.43 
5 *26:16 *26:18 4.5 
6 *26:18 *26:19 258.93 
7 *26:19 *419:io_in[32] 14.49 
*END

*D_NET *27 0.283771
*CONN
*P io_in[33] I
*I *419:io_in[33] I *D user_proj_example
*CAP
1 io_in[33] 0.000180294
2 *419:io_in[33] 0.000658283
3 *27:19 0.00798123
4 *27:18 0.00732295
5 *27:16 0.0141675
6 *27:15 0.0141675
7 *27:13 0.0172077
8 *27:11 0.017388
9 *27:19 *47:10 0.00976044
10 *27:19 *60:10 0.00640349
11 *27:19 *102:8 0.173017
12 *1:18 *27:16 0
13 *2:11 *27:19 0.015168
14 *12:11 *27:19 0.000348106
*RES
1 io_in[33] *27:11 2.475 
2 *27:11 *27:13 187.11 
3 *27:13 *27:15 4.5 
4 *27:15 *27:16 141.03 
5 *27:16 *27:18 4.5 
6 *27:18 *27:19 252.99 
7 *27:19 *419:io_in[33] 10.665 
*END

*D_NET *28 0.426697
*CONN
*P io_in[34] I
*I *419:io_in[34] I *D user_proj_example
*CAP
1 io_in[34] 0.000132518
2 *419:io_in[34] 7.40635e-05
3 *28:19 0.00593201
4 *28:18 0.00585795
5 *28:16 0.0203641
6 *28:15 0.0203641
7 *28:13 0.0155199
8 *28:11 0.0156524
9 *28:13 *338:16 0
10 *28:13 *346:16 0
11 *28:13 *360:16 0
12 *28:16 *320:13 0
13 *28:19 *69:8 0.193035
14 *28:19 *72:8 0.149765
*RES
1 io_in[34] *28:11 1.935 
2 *28:11 *28:13 168.21 
3 *28:13 *28:15 4.5 
4 *28:15 *28:16 202.95 
5 *28:16 *28:18 4.5 
6 *28:18 *28:19 279.45 
7 *28:19 *419:io_in[34] 5.085 
*END

*D_NET *29 0.311147
*CONN
*P io_in[35] I
*I *419:io_in[35] I *D user_proj_example
*CAP
1 io_in[35] 8.47422e-05
2 *419:io_in[35] 0.00136861
3 *29:19 0.0158416
4 *29:18 0.014473
5 *29:16 0.028438
6 *29:15 0.028438
7 *29:13 0.0171778
8 *29:11 0.0172625
9 *419:io_in[35] *104:10 0
10 *29:16 *322:11 0
11 *29:19 *30:15 0.188063
*RES
1 io_in[35] *29:11 1.395 
2 *29:11 *29:13 181.71 
3 *29:13 *29:15 4.5 
4 *29:15 *29:16 281.43 
5 *29:16 *29:18 4.5 
6 *29:18 *29:19 272.25 
7 *29:19 *419:io_in[35] 17.415 
*END

*D_NET *30 0.498926
*CONN
*P io_in[36] I
*I *419:io_in[36] I *D user_proj_example
*CAP
1 io_in[36] 0.00123228
2 *419:io_in[36] 0.00135076
3 *30:15 0.00506565
4 *30:14 0.00371489
5 *30:12 0.0351777
6 *30:11 0.0351777
7 *30:9 0.0154486
8 *30:7 0.0166809
9 *30:12 *354:11 0
10 *30:15 *106:10 0.197015
11 *29:19 *30:15 0.188063
*RES
1 io_in[36] *30:7 13.185 
2 *30:7 *30:9 163.44 
3 *30:9 *30:11 4.5 
4 *30:11 *30:12 348.75 
5 *30:12 *30:14 4.5 
6 *30:14 *30:15 285.21 
7 *30:15 *419:io_in[36] 17.235 
*END

*D_NET *31 0.300358
*CONN
*P io_in[37] I
*I *419:io_in[37] I *D user_proj_example
*CAP
1 io_in[37] 0.000240014
2 *419:io_in[37] 0.000472319
3 *31:16 0.0326481
4 *31:15 0.0321757
5 *31:13 0.046101
6 *31:11 0.046341
7 *419:io_in[37] *77:10 0
8 *31:16 *121:13 0.141348
9 *6:11 *419:io_in[37] 0.00103202
*RES
1 io_in[37] *31:11 3.015 
2 *31:11 *31:13 477.63 
3 *31:13 *31:15 4.5 
4 *31:15 *31:16 406.53 
5 *31:16 *419:io_in[37] 16.47 
*END

*D_NET *32 0.643854
*CONN
*P io_in[3] I
*I *419:io_in[3] I *D user_proj_example
*CAP
1 io_in[3] 0.000313855