*SPEF "ieee 1481-1999"
*DESIGN "user_project_wrapper"
*DATE "11:11:11 Fri 11 11, 1111"
*VENDOR "OpenRCX"
*PROGRAM "Parallel Extraction"
*VERSION "1.0"
*DESIGN_FLOW "NAME_SCOPE LOCAL" "PIN_CAP NONE"
*DIVIDER /
*DELIMITER :
*BUS_DELIMITER []
*T_UNIT 1 NS
*C_UNIT 1 PF
*R_UNIT 1 OHM
*L_UNIT 1 HENRY

*NAME_MAP
*1 io_in[0]
*2 io_in[10]
*3 io_in[11]
*4 io_in[12]
*5 io_in[13]
*6 io_in[14]
*7 io_in[15]
*8 io_in[16]
*9 io_in[17]
*10 io_in[18]
*11 io_in[19]
*12 io_in[1]
*13 io_in[20]
*14 io_in[21]
*15 io_in[22]
*16 io_in[23]
*17 io_in[24]
*18 io_in[25]
*19 io_in[26]
*20 io_in[27]
*21 io_in[28]
*22 io_in[29]
*23 io_in[2]
*24 io_in[30]
*25 io_in[31]
*26 io_in[32]
*27 io_in[33]
*28 io_in[34]
*29 io_in[35]
*30 io_in[36]
*31 io_in[37]
*32 io_in[3]
*33 io_in[4]
*34 io_in[5]
*35 io_in[6]
*36 io_in[7]
*37 io_in[8]
*38 io_in[9]
*39 io_oeb[0]
*40 io_oeb[10]
*41 io_oeb[11]
*42 io_oeb[12]
*43 io_oeb[13]
*44 io_oeb[14]
*45 io_oeb[15]
*46 io_oeb[16]
*47 io_oeb[17]
*48 io_oeb[18]
*49 io_oeb[19]
*50 io_oeb[1]
*51 io_oeb[20]
*52 io_oeb[21]
*53 io_oeb[22]
*54 io_oeb[23]
*55 io_oeb[24]
*56 io_oeb[25]
*57 io_oeb[26]
*58 io_oeb[27]
*59 io_oeb[28]
*60 io_oeb[29]
*61 io_oeb[2]
*62 io_oeb[30]
*63 io_oeb[31]
*64 io_oeb[32]
*65 io_oeb[33]
*66 io_oeb[34]
*67 io_oeb[35]
*68 io_oeb[36]
*69 io_oeb[37]
*70 io_oeb[3]
*71 io_oeb[4]
*72 io_oeb[5]
*73 io_oeb[6]
*74 io_oeb[7]
*75 io_oeb[8]
*76 io_oeb[9]
*77 io_out[0]
*78 io_out[10]
*79 io_out[11]
*80 io_out[12]
*81 io_out[13]
*82 io_out[14]
*83 io_out[15]
*84 io_out[16]
*85 io_out[17]
*86 io_out[18]
*87 io_out[19]
*88 io_out[1]
*89 io_out[20]
*90 io_out[21]
*91 io_out[22]
*92 io_out[23]
*93 io_out[24]
*94 io_out[25]
*95 io_out[26]
*96 io_out[27]
*97 io_out[28]
*98 io_out[29]
*99 io_out[2]
*100 io_out[30]
*101 io_out[31]
*102 io_out[32]
*103 io_out[33]
*104 io_out[34]
*105 io_out[35]
*106 io_out[36]
*107 io_out[37]
*108 io_out[3]
*109 io_out[4]
*110 io_out[5]
*111 io_out[6]
*112 io_out[7]
*113 io_out[8]
*114 io_out[9]
*115 la_data_in[0]
*116 la_data_in[10]
*117 la_data_in[11]
*118 la_data_in[12]
*119 la_data_in[13]
*120 la_data_in[14]
*121 la_data_in[15]
*122 la_data_in[16]
*123 la_data_in[17]
*124 la_data_in[18]
*125 la_data_in[19]
*126 la_data_in[1]
*127 la_data_in[20]
*128 la_data_in[21]
*129 la_data_in[22]
*130 la_data_in[23]
*131 la_data_in[24]
*132 la_data_in[25]
*133 la_data_in[26]
*134 la_data_in[27]
*135 la_data_in[28]
*136 la_data_in[29]
*137 la_data_in[2]
*138 la_data_in[30]
*139 la_data_in[31]
*140 la_data_in[32]
*141 la_data_in[33]
*142 la_data_in[34]
*143 la_data_in[35]
*144 la_data_in[36]
*145 la_data_in[37]
*146 la_data_in[38]
*147 la_data_in[39]
*148 la_data_in[3]
*149 la_data_in[40]
*150 la_data_in[41]
*151 la_data_in[42]
*152 la_data_in[43]
*153 la_data_in[44]
*154 la_data_in[45]
*155 la_data_in[46]
*156 la_data_in[47]
*157 la_data_in[48]
*158 la_data_in[49]
*159 la_data_in[4]
*160 la_data_in[50]
*161 la_data_in[51]
*162 la_data_in[52]
*163 la_data_in[53]
*164 la_data_in[54]
*165 la_data_in[55]
*166 la_data_in[56]
*167 la_data_in[57]
*168 la_data_in[58]
*169 la_data_in[59]
*170 la_data_in[5]
*171 la_data_in[60]
*172 la_data_in[61]
*173 la_data_in[62]
*174 la_data_in[63]
*175 la_data_in[6]
*176 la_data_in[7]
*177 la_data_in[8]
*178 la_data_in[9]
*179 la_data_out[0]
*180 la_data_out[10]
*181 la_data_out[11]
*182 la_data_out[12]
*183 la_data_out[13]
*184 la_data_out[14]
*185 la_data_out[15]
*186 la_data_out[16]
*187 la_data_out[17]
*188 la_data_out[18]
*189 la_data_out[19]
*190 la_data_out[1]
*191 la_data_out[20]
*192 la_data_out[21]
*193 la_data_out[22]
*194 la_data_out[23]
*195 la_data_out[24]
*196 la_data_out[25]
*197 la_data_out[26]
*198 la_data_out[27]
*199 la_data_out[28]
*200 la_data_out[29]
*201 la_data_out[2]
*202 la_data_out[30]
*203 la_data_out[31]
*204 la_data_out[32]
*205 la_data_out[33]
*206 la_data_out[34]
*207 la_data_out[35]
*208 la_data_out[36]
*209 la_data_out[37]
*210 la_data_out[38]
*211 la_data_out[39]
*212 la_data_out[3]
*213 la_data_out[40]
*214 la_data_out[41]
*215 la_data_out[42]
*216 la_data_out[43]
*217 la_data_out[44]
*218 la_data_out[45]
*219 la_data_out[46]
*220 la_data_out[47]
*221 la_data_out[48]
*222 la_data_out[49]
*223 la_data_out[4]
*224 la_data_out[50]
*225 la_data_out[51]
*226 la_data_out[52]
*227 la_data_out[53]
*228 la_data_out[54]
*229 la_data_out[55]
*230 la_data_out[56]
*231 la_data_out[57]
*232 la_data_out[58]
*233 la_data_out[59]
*234 la_data_out[5]
*235 la_data_out[60]
*236 la_data_out[61]
*237 la_data_out[62]
*238 la_data_out[63]
*239 la_data_out[6]
*240 la_data_out[7]
*241 la_data_out[8]
*242 la_data_out[9]
*243 la_oenb[0]
*244 la_oenb[10]
*245 la_oenb[11]
*246 la_oenb[12]
*247 la_oenb[13]
*248 la_oenb[14]
*249 la_oenb[15]
*250 la_oenb[16]
*251 la_oenb[17]
*252 la_oenb[18]
*253 la_oenb[19]
*254 la_oenb[1]
*255 la_oenb[20]
*256 la_oenb[21]
*257 la_oenb[22]
*258 la_oenb[23]
*259 la_oenb[24]
*260 la_oenb[25]
*261 la_oenb[26]
*262 la_oenb[27]
*263 la_oenb[28]
*264 la_oenb[29]
*265 la_oenb[2]
*266 la_oenb[30]
*267 la_oenb[31]
*268 la_oenb[32]
*269 la_oenb[33]
*270 la_oenb[34]
*271 la_oenb[35]
*272 la_oenb[36]
*273 la_oenb[37]
*274 la_oenb[38]
*275 la_oenb[39]
*276 la_oenb[3]
*277 la_oenb[40]
*278 la_oenb[41]
*279 la_oenb[42]
*280 la_oenb[43]
*281 la_oenb[44]
*282 la_oenb[45]
*283 la_oenb[46]
*284 la_oenb[47]
*285 la_oenb[48]
*286 la_oenb[49]
*287 la_oenb[4]
*288 la_oenb[50]
*289 la_oenb[51]
*290 la_oenb[52]
*291 la_oenb[53]
*292 la_oenb[54]
*293 la_oenb[55]
*294 la_oenb[56]
*295 la_oenb[57]
*296 la_oenb[58]
*297 la_oenb[59]
*298 la_oenb[5]
*299 la_oenb[60]
*300 la_oenb[61]
*301 la_oenb[62]
*302 la_oenb[63]
*303 la_oenb[6]
*304 la_oenb[7]
*305 la_oenb[8]
*306 la_oenb[9]
*307 user_clock2
*308 user_irq[0]
*309 user_irq[1]
*310 user_irq[2]
*313 wb_clk_i
*314 wb_rst_i
*315 wbs_ack_o
*316 wbs_adr_i[0]
*317 wbs_adr_i[10]
*318 wbs_adr_i[11]
*319 wbs_adr_i[12]
*320 wbs_adr_i[13]
*321 wbs_adr_i[14]
*322 wbs_adr_i[15]
*323 wbs_adr_i[16]
*324 wbs_adr_i[17]
*325 wbs_adr_i[18]
*326 wbs_adr_i[19]
*327 wbs_adr_i[1]
*328 wbs_adr_i[20]
*329 wbs_adr_i[21]
*330 wbs_adr_i[22]
*331 wbs_adr_i[23]
*332 wbs_adr_i[24]
*333 wbs_adr_i[25]
*334 wbs_adr_i[26]
*335 wbs_adr_i[27]
*336 wbs_adr_i[28]
*337 wbs_adr_i[29]
*338 wbs_adr_i[2]
*339 wbs_adr_i[30]
*340 wbs_adr_i[31]
*341 wbs_adr_i[3]
*342 wbs_adr_i[4]
*343 wbs_adr_i[5]
*344 wbs_adr_i[6]
*345 wbs_adr_i[7]
*346 wbs_adr_i[8]
*347 wbs_adr_i[9]
*348 wbs_cyc_i
*349 wbs_dat_i[0]
*350 wbs_dat_i[10]
*351 wbs_dat_i[11]
*352 wbs_dat_i[12]
*353 wbs_dat_i[13]
*354 wbs_dat_i[14]
*355 wbs_dat_i[15]
*356 wbs_dat_i[16]
*357 wbs_dat_i[17]
*358 wbs_dat_i[18]
*359 wbs_dat_i[19]
*360 wbs_dat_i[1]
*361 wbs_dat_i[20]
*362 wbs_dat_i[21]
*363 wbs_dat_i[22]
*364 wbs_dat_i[23]
*365 wbs_dat_i[24]
*366 wbs_dat_i[25]
*367 wbs_dat_i[26]
*368 wbs_dat_i[27]
*369 wbs_dat_i[28]
*370 wbs_dat_i[29]
*371 wbs_dat_i[2]
*372 wbs_dat_i[30]
*373 wbs_dat_i[31]
*374 wbs_dat_i[3]
*375 wbs_dat_i[4]
*376 wbs_dat_i[5]
*377 wbs_dat_i[6]
*378 wbs_dat_i[7]
*379 wbs_dat_i[8]
*380 wbs_dat_i[9]
*381 wbs_dat_o[0]
*382 wbs_dat_o[10]
*383 wbs_dat_o[11]
*384 wbs_dat_o[12]
*385 wbs_dat_o[13]
*386 wbs_dat_o[14]
*387 wbs_dat_o[15]
*388 wbs_dat_o[16]
*389 wbs_dat_o[17]
*390 wbs_dat_o[18]
*391 wbs_dat_o[19]
*392 wbs_dat_o[1]
*393 wbs_dat_o[20]
*394 wbs_dat_o[21]
*395 wbs_dat_o[22]
*396 wbs_dat_o[23]
*397 wbs_dat_o[24]
*398 wbs_dat_o[25]
*399 wbs_dat_o[26]
*400 wbs_dat_o[27]
*401 wbs_dat_o[28]
*402 wbs_dat_o[29]
*403 wbs_dat_o[2]
*404 wbs_dat_o[30]
*405 wbs_dat_o[31]
*406 wbs_dat_o[3]
*407 wbs_dat_o[4]
*408 wbs_dat_o[5]
*409 wbs_dat_o[6]
*410 wbs_dat_o[7]
*411 wbs_dat_o[8]
*412 wbs_dat_o[9]
*413 wbs_sel_i[0]
*414 wbs_sel_i[1]
*415 wbs_sel_i[2]
*416 wbs_sel_i[3]
*417 wbs_stb_i
*418 wbs_we_i
*419 mprj

*PORTS
io_in[0] I
io_in[10] I
io_in[11] I
io_in[12] I
io_in[13] I
io_in[14] I
io_in[15] I
io_in[16] I
io_in[17] I
io_in[18] I
io_in[19] I
io_in[1] I
io_in[20] I
io_in[21] I
io_in[22] I
io_in[23] I
io_in[24] I
io_in[25] I
io_in[26] I
io_in[27] I
io_in[28] I
io_in[29] I
io_in[2] I
io_in[30] I
io_in[31] I
io_in[32] I
io_in[33] I
io_in[34] I
io_in[35] I
io_in[36] I
io_in[37] I
io_in[3] I
io_in[4] I
io_in[5] I
io_in[6] I
io_in[7] I
io_in[8] I
io_in[9] I
io_oeb[0] O
io_oeb[10] O
io_oeb[11] O
io_oeb[12] O
io_oeb[13] O
io_oeb[14] O
io_oeb[15] O
io_oeb[16] O
io_oeb[17] O
io_oeb[18] O
io_oeb[19] O
io_oeb[1] O
io_oeb[20] O
io_oeb[21] O
io_oeb[22] O
io_oeb[23] O
io_oeb[24] O
io_oeb[25] O
io_oeb[26] O
io_oeb[27] O
io_oeb[28] O
io_oeb[29] O
io_oeb[2] O
io_oeb[30] O
io_oeb[31] O
io_oeb[32] O
io_oeb[33] O
io_oeb[34] O
io_oeb[35] O
io_oeb[36] O
io_oeb[37] O
io_oeb[3] O
io_oeb[4] O
io_oeb[5] O
io_oeb[6] O
io_oeb[7] O
io_oeb[8] O
io_oeb[9] O
io_out[0] O
io_out[10] O
io_out[11] O
io_out[12] O
io_out[13] O
io_out[14] O
io_out[15] O
io_out[16] O
io_out[17] O
io_out[18] O
io_out[19] O
io_out[1] O
io_out[20] O
io_out[21] O
io_out[22] O
io_out[23] O
io_out[24] O
io_out[25] O
io_out[26] O
io_out[27] O
io_out[28] O
io_out[29] O
io_out[2] O
io_out[30] O
io_out[31] O
io_out[32] O
io_out[33] O
io_out[34] O
io_out[35] O
io_out[36] O
io_out[37] O
io_out[3] O
io_out[4] O
io_out[5] O
io_out[6] O
io_out[7] O
io_out[8] O
io_out[9] O
la_data_in[0] I
la_data_in[10] I
la_data_in[11] I
la_data_in[12] I
la_data_in[13] I
la_data_in[14] I
la_data_in[15] I
la_data_in[16] I
la_data_in[17] I
la_data_in[18] I
la_data_in[19] I
la_data_in[1] I
la_data_in[20] I
la_data_in[21] I
la_data_in[22] I
la_data_in[23] I
la_data_in[24] I
la_data_in[25] I
la_data_in[26] I
la_data_in[27] I
la_data_in[28] I
la_data_in[29] I
la_data_in[2] I
la_data_in[30] I
la_data_in[31] I
la_data_in[32] I
la_data_in[33] I
la_data_in[34] I
la_data_in[35] I
la_data_in[36] I
la_data_in[37] I
la_data_in[38] I
la_data_in[39] I
la_data_in[3] I
la_data_in[40] I
la_data_in[41] I
la_data_in[42] I
la_data_in[43] I
la_data_in[44] I
la_data_in[45] I
la_data_in[46] I
la_data_in[47] I
la_data_in[48] I
la_data_in[49] I
la_data_in[4] I
la_data_in[50] I
la_data_in[51] I
la_data_in[52] I
la_data_in[53] I
la_data_in[54] I
la_data_in[55] I
la_data_in[56] I
la_data_in[57] I
la_data_in[58] I
la_data_in[59] I
la_data_in[5] I
la_data_in[60] I
la_data_in[61] I
la_data_in[62] I
la_data_in[63] I
la_data_in[6] I
la_data_in[7] I
la_data_in[8] I
la_data_in[9] I
la_data_out[0] O
la_data_out[10] O
la_data_out[11] O
la_data_out[12] O
la_data_out[13] O
la_data_out[14] O
la_data_out[15] O
la_data_out[16] O
la_data_out[17] O
la_data_out[18] O
la_data_out[19] O
la_data_out[1] O
la_data_out[20] O
la_data_out[21] O
la_data_out[22] O
la_data_out[23] O
la_data_out[24] O
la_data_out[25] O
la_data_out[26] O
la_data_out[27] O
la_data_out[28] O
la_data_out[29] O
la_data_out[2] O
la_data_out[30] O
la_data_out[31] O
la_data_out[32] O
la_data_out[33] O
la_data_out[34] O
la_data_out[35] O
la_data_out[36] O
la_data_out[37] O
la_data_out[38] O
la_data_out[39] O
la_data_out[3] O
la_data_out[40] O
la_data_out[41] O
la_data_out[42] O
la_data_out[43] O
la_data_out[44] O
la_data_out[45] O
la_data_out[46] O
la_data_out[47] O
la_data_out[48] O
la_data_out[49] O
la_data_out[4] O
la_data_out[50] O
la_data_out[51] O
la_data_out[52] O
la_data_out[53] O
la_data_out[54] O
la_data_out[55] O
la_data_out[56] O
la_data_out[57] O
la_data_out[58] O
la_data_out[59] O
la_data_out[5] O
la_data_out[60] O
la_data_out[61] O
la_data_out[62] O
la_data_out[63] O
la_data_out[6] O
la_data_out[7] O
la_data_out[8] O
la_data_out[9] O
la_oenb[0] I
la_oenb[10] I
la_oenb[11] I
la_oenb[12] I
la_oenb[13] I
la_oenb[14] I
la_oenb[15] I
la_oenb[16] I
la_oenb[17] I
la_oenb[18] I
la_oenb[19] I
la_oenb[1] I
la_oenb[20] I
la_oenb[21] I
la_oenb[22] I
la_oenb[23] I
la_oenb[24] I
la_oenb[25] I
la_oenb[26] I
la_oenb[27] I
la_oenb[28] I
la_oenb[29] I
la_oenb[2] I
la_oenb[30] I
la_oenb[31] I
la_oenb[32] I
la_oenb[33] I
la_oenb[34] I
la_oenb[35] I
la_oenb[36] I
la_oenb[37] I
la_oenb[38] I
la_oenb[39] I
la_oenb[3] I
la_oenb[40] I
la_oenb[41] I
la_oenb[42] I
la_oenb[43] I
la_oenb[44] I
la_oenb[45] I
la_oenb[46] I
la_oenb[47] I
la_oenb[48] I
la_oenb[49] I
la_oenb[4] I
la_oenb[50] I
la_oenb[51] I
la_oenb[52] I
la_oenb[53] I
la_oenb[54] I
la_oenb[55] I
la_oenb[56] I
la_oenb[57] I
la_oenb[58] I
la_oenb[59] I
la_oenb[5] I
la_oenb[60] I
la_oenb[61] I
la_oenb[62] I
la_oenb[63] I
la_oenb[6] I
la_oenb[7] I
la_oenb[8] I
la_oenb[9] I
user_clock2 I
user_irq[0] O
user_irq[1] O
user_irq[2] O
wb_clk_i I
wb_rst_i I
wbs_ack_o O
wbs_adr_i[0] I
wbs_adr_i[10] I
wbs_adr_i[11] I
wbs_adr_i[12] I
wbs_adr_i[13] I
wbs_adr_i[14] I
wbs_adr_i[15] I
wbs_adr_i[16] I
wbs_adr_i[17] I
wbs_adr_i[18] I
wbs_adr_i[19] I
wbs_adr_i[1] I
wbs_adr_i[20] I
wbs_adr_i[21] I
wbs_adr_i[22] I
wbs_adr_i[23] I
wbs_adr_i[24] I
wbs_adr_i[25] I
wbs_adr_i[26] I
wbs_adr_i[27] I
wbs_adr_i[28] I
wbs_adr_i[29] I
wbs_adr_i[2] I
wbs_adr_i[30] I
wbs_adr_i[31] I
wbs_adr_i[3] I
wbs_adr_i[4] I
wbs_adr_i[5] I
wbs_adr_i[6] I
wbs_adr_i[7] I
wbs_adr_i[8] I
wbs_adr_i[9] I
wbs_cyc_i I
wbs_dat_i[0] I
wbs_dat_i[10] I
wbs_dat_i[11] I
wbs_dat_i[12] I
wbs_dat_i[13] I
wbs_dat_i[14] I
wbs_dat_i[15] I
wbs_dat_i[16] I
wbs_dat_i[17] I
wbs_dat_i[18] I
wbs_dat_i[19] I
wbs_dat_i[1] I
wbs_dat_i[20] I
wbs_dat_i[21] I
wbs_dat_i[22] I
wbs_dat_i[23] I
wbs_dat_i[24] I
wbs_dat_i[25] I
wbs_dat_i[26] I
wbs_dat_i[27] I
wbs_dat_i[28] I
wbs_dat_i[29] I
wbs_dat_i[2] I
wbs_dat_i[30] I
wbs_dat_i[31] I
wbs_dat_i[3] I
wbs_dat_i[4] I
wbs_dat_i[5] I
wbs_dat_i[6] I
wbs_dat_i[7] I
wbs_dat_i[8] I
wbs_dat_i[9] I
wbs_dat_o[0] O
wbs_dat_o[10] O
wbs_dat_o[11] O
wbs_dat_o[12] O
wbs_dat_o[13] O
wbs_dat_o[14] O
wbs_dat_o[15] O
wbs_dat_o[16] O
wbs_dat_o[17] O
wbs_dat_o[18] O
wbs_dat_o[19] O
wbs_dat_o[1] O
wbs_dat_o[20] O
wbs_dat_o[21] O
wbs_dat_o[22] O
wbs_dat_o[23] O
wbs_dat_o[24] O
wbs_dat_o[25] O
wbs_dat_o[26] O
wbs_dat_o[27] O
wbs_dat_o[28] O
wbs_dat_o[29] O
wbs_dat_o[2] O
wbs_dat_o[30] O
wbs_dat_o[31] O
wbs_dat_o[3] O
wbs_dat_o[4] O
wbs_dat_o[5] O
wbs_dat_o[6] O
wbs_dat_o[7] O
wbs_dat_o[8] O
wbs_dat_o[9] O
wbs_sel_i[0] I
wbs_sel_i[1] I
wbs_sel_i[2] I
wbs_sel_i[3] I
wbs_stb_i I
wbs_we_i I

*D_NET *1 0.256024
*CONN
*P io_in[0] I
*I *419:io_in[0] I *D user_proj_example
*CAP
1 io_in[0] 0.00159288
2 *419:io_in[0] 0.000159855
3 *1:14 0.0387637
4 *1:13 0.0386039
5 *1:11 0.0806066
6 *1:10 0.0806066
7 *1:8 0.00660359
8 *1:7 0.00819647
9 *419:io_in[0] *63:27 0.00028598
10 *419:io_in[0] *69:8 0
11 *1:14 *66:13 0
12 *1:14 *101:13 0.000604551
*RES
1 io_in[0] *1:7 21.825 
2 *1:7 *1:8 65.97 
3 *1:8 *1:10 4.5 
4 *1:10 *1:11 757.35 
5 *1:11 *1:13 4.5 
6 *1:13 *1:14 386.37 
7 *1:14 *419:io_in[0] 11.07 
*END

*D_NET *2 0.182426
*CONN
*P io_in[10] I
*I *419:io_in[10] I *D user_proj_example
*CAP
1 io_in[10] 0.000619745
2 *419:io_in[10] 0.00328993
3 *2:11 0.0671602
4 *2:10 0.0638703
5 *2:8 0.0150246
6 *2:7 0.0156443
7 *419:io_in[10] *114:14 0
8 *2:8 *70:15 0.0065672
9 *2:8 *110:17 0.0102497
10 *2:11 *32:11 0
11 *2:11 *101:10 0
*RES
1 io_in[10] *2:7 10.665 
2 *2:7 *2:8 160.83 
3 *2:8 *2:10 4.5 
4 *2:10 *2:11 692.91 
5 *2:11 *419:io_in[10] 35.235 
*END

*D_NET *3 0.178745
*CONN
*P io_in[11] I
*I *419:io_in[11] I *D user_proj_example
*CAP
1 io_in[11] 0.000280649
2 *419:io_in[11] 0.00253971
3 *3:16 0.0256241
4 *3:15 0.0230844
5 *3:13 0.0634675
6 *3:11 0.0637482
*RES
1 io_in[11] *3:11 2.655 
2 *3:11 *3:13 690.93 
3 *3:13 *3:15 4.5 
4 *3:15 *3:16 229.68 
5 *3:16 *419:io_in[11] 23.355 
*END

*D_NET *4 0.189839
*CONN
*P io_in[12] I
*I *419:io_in[12] I *D user_proj_example
*CAP
1 io_in[12] 0.000215438
2 *419:io_in[12] 9.37343e-05
3 *4:16 0.0320508
4 *4:15 0.031957
5 *4:13 0.0626533
6 *4:11 0.0628687
*RES
1 io_in[12] *4:11 2.115 
2 *4:11 *4:13 682.83 
3 *4:13 *4:15 4.5 
4 *4:15 *4:16 316.17 
5 *4:16 *419:io_in[12] 0.945 
*END

*D_NET *5 0.21382
*CONN
*P io_in[13] I
*I *419:io_in[13] I *D user_proj_example
*CAP
1 io_in[13] 0.000145659
2 *419:io_in[13] 0.00334128
3 *5:16 0.03984
4 *5:15 0.0364988
5 *5:13 0.0599306
6 *5:11 0.0600762
7 *419:io_in[13] *30:11 0
8 *419:io_in[13] *40:11 0
9 *419:io_in[13] *93:10 0.0139871
10 *5:16 *419:io_in[16] 0
*RES
1 io_in[13] *5:11 1.575 
2 *5:11 *5:13 654.57 
3 *5:13 *5:15 4.5 
4 *5:15 *5:16 363.15 
5 *5:16 *419:io_in[13] 47.565 
*END

*D_NET *6 0.218162
*CONN
*P io_in[14] I
*I *419:io_in[14] I *D user_proj_example
*CAP
1 io_in[14] 0.00397136
2 *419:io_in[14] 0.0025078
3 *6:12 0.0459485
4 *6:11 0.0434407
5 *6:9 0.0557252
6 *6:7 0.0596966
7 *419:io_in[14] *38:15 0.002321
8 *419:io_in[14] *45:10 0.00428972
9 *419:io_in[14] *81:5 0
10 *6:12 *419:io_in[16] 0.000260847
11 *6:12 *46:9 0
*RES
1 io_in[14] *6:7 43.425 
2 *6:7 *6:9 608.94 
3 *6:9 *6:11 4.5 
4 *6:11 *6:12 432.99 
5 *6:12 *419:io_in[14] 39.465 
*END

*D_NET *7 0.23226
*CONN
*P io_in[15] I
*I *419:io_in[15] I *D user_proj_example
*CAP
1 io_in[15] 0.000255689
2 *419:io_in[15] 0.00261809
3 *7:11 0.0503314
4 *7:10 0.0477133
5 *7:8 0.0655429
6 *7:7 0.0657986
7 *7:11 *14:10 0
8 *7:11 *82:13 0
9 *7:11 *95:13 0
*RES
1 io_in[15] *7:7 6.885 
2 *7:7 *7:8 642.87 
3 *7:8 *7:10 4.5 
4 *7:10 *7:11 475.38 
5 *7:11 *419:io_in[15] 23.895 
*END

*D_NET *8 0.257024
*CONN
*P io_in[16] I
*I *419:io_in[16] I *D user_proj_example
*CAP
1 io_in[16] 0.000164983
2 *419:io_in[16] 0.00227919
3 *8:16 0.0467308
4 *8:15 0.0444516
5 *8:13 0.0480074
6 *8:11 0.0481724
7 *8:16 *15:16 0.0316444
8 *8:16 *18:21 0.0146099
9 *8:16 *22:13 0.0207025
10 *8:16 *30:11 0
11 *8:16 *102:10 0
12 *5:16 *419:io_in[16] 0
13 *6:12 *419:io_in[16] 0.000260847
*RES
1 io_in[16] *8:11 1.935 
2 *8:11 *8:13 479.07 
3 *8:13 *8:15 4.5 
4 *8:15 *8:16 526.41 
5 *8:16 *419:io_in[16] 26.235 
*END

*D_NET *9 0.185702
*CONN
*P io_in[17] I
*I *419:io_in[17] I *D user_proj_example
*CAP
1 io_in[17] 0.000291323
2 *419:io_in[17] 0.00404386
3 *9:16 0.0461628
4 *9:15 0.0421189
5 *9:13 0.046397
6 *9:11 0.0466883
7 *9:16 *70:12 0
*RES
1 io_in[17] *9:11 3.015 
2 *9:11 *9:13 462.87 
3 *9:13 *9:15 4.5 
4 *9:15 *9:16 410.49 
5 *9:16 *419:io_in[17] 42.075 
*END

*D_NET *10 0.354135
*CONN
*P io_in[18] I
*I *419:io_in[18] I *D user_proj_example
*CAP
1 io_in[18] 0.000104982
2 *419:io_in[18] 0.000612886
3 *10:16 0.0060937
4 *10:15 0.00548082
5 *10:13 0.0496023
6 *10:11 0.0497072
7 *10:16 *23:19 0.0035359
8 *10:16 *25:13 0.000696278
9 *10:16 *57:8 0.0011605
10 *10:16 *62:8 0.000507719
11 *10:16 *74:8 0.0158066
12 *10:16 *86:8 0.177246
13 *10:16 *94:8 0.0400991
14 *10:16 *98:8 0.00348148
*RES
1 io_in[18] *10:11 1.395 
2 *10:11 *10:13 494.37 
3 *10:13 *10:15 4.5 
4 *10:15 *10:16 296.73 
5 *10:16 *419:io_in[18] 9.585 
*END

*D_NET *11 0.313931
*CONN
*P io_in[19] I
*I *419:io_in[19] I *D user_proj_example
*CAP
1 io_in[19] 0.000224243
2 *419:io_in[19] 0.000626102
3 *11:16 0.00281522
4 *11:15 0.00218912
5 *11:13 0.0495846
6 *11:11 0.0498088
7 *419:io_in[19] *49:9 0
8 *11:16 *23:19 0.020806
9 *11:16 *25:13 0.0627291
10 *11:16 *86:8 0.125147
*RES
1 io_in[19] *11:11 2.475 
2 *11:11 *11:13 494.01 
3 *11:13 *11:15 4.5 
4 *11:15 *11:16 181.17 
5 *11:16 *419:io_in[19] 9.945 
*END

*D_NET *12 0.37121
*CONN
*P io_in[1] I
*I *419:io_in[1] I *D user_proj_example
*CAP
1 io_in[1] 0.00148585
2 *419:io_in[1] 0.000406751
3 *12:14 0.0282624
4 *12:13 0.0278557
5 *12:11 0.0733365
6 *12:10 0.0748223
7 *419:io_in[1] *63:27 0.00491141
8 *419:io_in[1] *69:8 0
9 *12:10 *39:13 0
10 *12:14 *39:7 0.160129
11 *12:14 *66:13 0
12 *12:14 *322:11 0
*RES
1 io_in[1] *12:10 23.895 
2 *12:10 *12:11 764.37 
3 *12:11 *12:13 4.5 
4 *12:13 *12:14 380.61 
5 *12:14 *419:io_in[1] 16.56 
*END

*D_NET *13 0.114427
*CONN
*P io_in[20] I
*I *419:io_in[20] I *D user_proj_example
*CAP
1 io_in[20] 0.00434068
2 *419:io_in[20] 0.00263431
3 *13:15 0.0107507
4 *13:14 0.00811643
5 *13:12 0.00656792
6 *13:11 0.00656792
7 *13:9 0.0355544
8 *13:7 0.0398951
9 *13:12 *75:12 0
10 *13:15 *87:13 0
*RES
1 io_in[20] *13:7 43.245 
2 *13:7 *13:9 355.14 
3 *13:9 *13:11 4.5 
4 *13:11 *13:12 70.29 
5 *13:12 *13:14 4.5 
6 *13:14 *13:15 79.74 
7 *13:15 *419:io_in[20] 23.895 
*END

*D_NET *14 0.109615
*CONN
*P io_in[21] I
*I *419:io_in[21] I *D user_proj_example
*CAP
1 io_in[21] 0.00109286
2 *419:io_in[21] 0.00255376
3 *14:19 0.0052569
4 *14:14 0.00662667
5 *14:11 0.048458
6 *14:10 0.0456273
7 *14:19 *89:17 0
8 *7:11 *14:10 0
*RES
1 io_in[21] *14:10 19.215 
2 *14:10 *14:11 444.33 
3 *14:11 *14:14 46.53 
4 *14:14 *14:19 30.51 
5 *14:19 *419:io_in[21] 23.085 
*END

*D_NET *15 0.159723
*CONN
*P io_in[22] I
*I *419:io_in[22] I *D user_proj_example
*CAP
1 io_in[22] 0.000290594
2 *419:io_in[22] 0.00239432
3 *15:16 0.0157859
4 *15:15 0.0133916
5 *15:13 0.0479627
6 *15:11 0.0482533
7 *419:io_in[22] *90:7 0
8 *15:16 *30:11 0
9 *15:16 *102:10 0
10 *8:16 *15:16 0.0316444
*RES
1 io_in[22] *15:11 3.015 
2 *15:11 *15:13 478.89 
3 *15:13 *15:15 4.5 
4 *15:15 *15:16 162.09 
5 *15:16 *419:io_in[22] 26.055 
*END

*D_NET *16 0.152159
*CONN
*P io_in[23] I
*I *419:io_in[23] I *D user_proj_example
*CAP
1 io_in[23] 0.000104982
2 *419:io_in[23] 0.00455443
3 *16:16 0.0301942
4 *16:15 0.0256398
5 *16:13 0.0457802
6 *16:11 0.0458852
7 *16:16 *110:14 0
8 *16:16 *111:10 0
*RES
1 io_in[23] *16:11 1.395 
2 *16:11 *16:13 457.47 
3 *16:13 *16:15 4.5 
4 *16:15 *16:16 275.49 
5 *16:16 *419:io_in[23] 46.935 
*END

*D_NET *17 0.210024
*CONN
*P io_in[24] I
*I *419:io_in[24] I *D user_proj_example
*CAP
1 io_in[24] 0.00112395
2 *419:io_in[24] 0.00264576
3 *17:11 0.0330545
4 *17:10 0.0304088
5 *17:8 0.0463462
6 *17:7 0.0474702
7 *419:io_in[24] *55:11 0
8 *419:io_in[24] *92:9 0.000420424
9 *17:11 *82:14 0.0485546
10 *17:11 *102:10 0
*RES
1 io_in[24] *17:7 16.065 
2 *17:7 *17:8 463.05 
3 *17:8 *17:10 4.5 
4 *17:10 *17:11 357.93 
5 *17:11 *419:io_in[24] 30.555 
*END

*D_NET *18 0.167353
*CONN
*P io_in[25] I
*I *419:io_in[25] I *D user_proj_example
*CAP
1 io_in[25] 0.000237175
2 *419:io_in[25] 0.00240246
3 *18:21 0.00350526
4 *18:16 0.0408795
5 *18:15 0.0397767
6 *18:13 0.0328464
7 *18:11 0.0330835
8 *419:io_in[25] *22:8 1.22751e-05
9 *18:21 *102:10 0
10 *8:16 *18:21 0.0146099
*RES
1 io_in[25] *18:11 2.295 
2 *18:11 *18:13 357.21 
3 *18:13 *18:15 4.5 
4 *18:15 *18:16 395.55 
5 *18:16 *18:21 30.15 
6 *18:21 *419:io_in[25] 21.915 
*END

*D_NET *19 0.142081
*CONN
*P io_in[26] I
*I *419:io_in[26] I *D user_proj_example
*CAP
1 io_in[26] 0.00010158
2 *419:io_in[26] 0.00256146
3 *19:16 0.0354208
4 *19:15 0.0328593
5 *19:13 0.0355184
6 *19:11 0.0356199
7 *419:io_in[26] *94:7 0
*RES
1 io_in[26] *19:11 1.215 
2 *19:11 *19:13 385.65 
3 *19:13 *19:15 4.5 
4 *19:15 *19:16 326.88 
5 *19:16 *419:io_in[26] 23.355 
*END

*D_NET *20 0.41346
*CONN
*P io_in[27] I
*I *419:io_in[27] I *D user_proj_example
*CAP
1 io_in[27] 0.00242728
2 *419:io_in[27] 0.00291745
3 *20:19 0.0185027
4 *20:18 0.0155853
5 *20:16 0.0252776
6 *20:15 0.0277049
7 *20:19 *58:10 0.25844
8 *20:19 *95:10 0.062605
9 *20:19 *101:10 0
*RES
1 io_in[27] *20:15 27.045 
2 *20:15 *20:16 252.45 
3 *20:16 *20:18 4.5 
4 *20:18 *20:19 374.13 
5 *20:19 *419:io_in[27] 31.455 
*END

*D_NET *21 0.125944
*CONN
*P io_in[28] I
*I *419:io_in[28] I *D user_proj_example
*CAP
1 io_in[28] 0.000167681
2 *419:io_in[28] 4.01718e-05
3 *21:16 0.0214632
4 *21:15 0.021423
5 *21:13 0.0413413
6 *21:11 0.041509
7 *21:16 *97:13 0
*RES
1 io_in[28] *21:11 1.755 
2 *21:11 *21:13 401.85 
3 *21:13 *21:15 4.5 
4 *21:15 *21:16 210.87 
5 *21:16 *419:io_in[28] 0.405 
*END

*D_NET *22 0.123662
*CONN
*P io_in[29] I
*I *419:io_in[29] I *D user_proj_example
*CAP
1 io_in[29] 0.035057
2 *419:io_in[29] 0.00220971
3 *22:13 0.0038167
4 *22:8 0.0140212
5 *22:7 0.0124142
6 *22:5 0.035057
7 *419:io_in[29] *97:12 0.000371323
8 *22:8 *56:11 0
9 *22:13 *102:10 0
10 *419:io_in[25] *22:8 1.22751e-05
11 *8:16 *22:13 0.0207025
*RES
1 io_in[29] *22:5 378.765 
2 *22:5 *22:7 4.5 
3 *22:7 *22:8 122.85 
4 *22:8 *22:13 38.97 
5 *22:13 *419:io_in[29] 21.735 
*END

*D_NET *23 0.510622
*CONN
*P io_in[2] I
*I *419:io_in[2] I *D user_proj_example
*CAP
1 io_in[2] 0.000215438
2 *419:io_in[2] 0.000626809
3 *23:19 0.0107835
4 *23:18 0.0101567
5 *23:16 0.0336736
6 *23:15 0.0336736
7 *23:13 0.0309457
8 *23:11 0.0311611
9 *419:io_in[2] *61:9 0
10 *23:16 *140:13 0
11 *23:19 *25:13 0.151507
12 *23:19 *26:19 0.156729
13 *23:19 *28:11 0.00348146
14 *23:19 *74:8 0
15 *23:19 *86:8 0.0100715
16 *23:19 *108:8 0.0132545
17 *10:16 *23:19 0.0035359
18 *11:16 *23:19 0.020806
*RES
1 io_in[2] *23:11 2.115 
2 *23:11 *23:13 327.87 
3 *23:13 *23:15 4.5 
4 *23:15 *23:16 332.37 
5 *23:16 *23:18 4.5 
6 *23:18 *23:19 429.75 
7 *23:19 *419:io_in[2] 10.305 
*END

*D_NET *24 0.0932576
*CONN
*P io_in[30] I
*I *419:io_in[30] I *D user_proj_example
*CAP
1 io_in[30] 0.000237175
2 *419:io_in[30] 0.00257955
3 *24:16 0.00780899
4 *24:15 0.00522944
5 *24:13 0.0385826
6 *24:11 0.0388198
7 *419:io_in[30] *98:7 0
*RES
1 io_in[30] *24:11 2.295 
2 *24:11 *24:13 415.35 
3 *24:13 *24:15 4.5 
4 *24:15 *24:16 51.48 
5 *24:16 *419:io_in[30] 23.895 
*END

*D_NET *25 0.308633
*CONN
*P io_in[31] I
*I *419:io_in[31] I *D user_proj_example
*CAP
1 io_in[31] 0.00010158
2 *419:io_in[31] 0.000620624
3 *25:13 0.00922407
4 *25:11 0.00870503
5 *25:13 *26:19 0.0421925
6 *25:13 *86:8 0.00058025
7 *25:13 *94:8 0.0322763
8 *10:16 *25:13 0.000696278
9 *11:16 *25:13 0.0627291
10 *23:19 *25:13 0.151507
*RES
1 io_in[31] *25:11 1.215 
2 *25:11 *25:13 424.89 
3 *25:13 *419:io_in[31] 10.125 
*END

*D_NET *26 0.469592
*CONN
*P io_in[32] I
*I *419:io_in[32] I *D user_proj_example
*CAP
1 io_in[32] 0.00247302
2 *419:io_in[32] 0.000662159
3 *26:19 0.00835342
4 *26:18 0.00769126
5 *26:16 0.00710132
6 *26:15 0.00957434
7 *419:io_in[32] *64:9 0
8 *26:19 *28:11 0.234815
9 *23:19 *26:19 0.156729
10 *25:13 *26:19 0.0421925
*RES
1 io_in[32] *26:15 29.745 
2 *26:15 *26:16 70.65 
3 *26:16 *26:18 4.5 
4 *26:18 *26:19 410.13 
5 *26:19 *419:io_in[32] 10.485 
*END

*D_NET *27 0.266088
*CONN
*P io_in[33] I
*I *419:io_in[33] I *D user_proj_example
*CAP
1 io_in[33] 0.000167681
2 *419:io_in[33] 0.00072738
3 *27:19 0.0149681
4 *27:18 0.0142408
5 *27:16 0.0139219
6 *27:15 0.0139219
7 *27:13 0.0127525
8 *27:11 0.0129202
9 *27:19 *28:11 0.0183608
10 *27:19 *40:10 0.00486988
11 *27:19 *44:10 0.00598901
12 *27:19 *50:10 0
13 *27:19 *108:8 0.153248
*RES
1 io_in[33] *27:11 1.755 
2 *27:11 *27:13 138.51 
3 *27:13 *27:15 4.5 
4 *27:15 *27:16 138.69 
5 *27:16 *27:18 4.5 
6 *27:18 *27:19 301.59 
7 *27:19 *419:io_in[33] 11.025 
*END

*D_NET *28 0.48709
*CONN
*P io_in[34] I
*I *419:io_in[34] I *D user_proj_example
*CAP
1 io_in[34] 0.00847721
2 *419:io_in[34] 0.000729584
3 *28:11 0.0067326
4 *28:10 0.00600301
5 *28:8 0.0206553
6 *28:7 0.0206553
7 *28:5 0.00847721
8 *419:io_in[34] *66:9 0
9 *28:5 *316:16 0
10 *28:5 *342:16 0.000233137
11 *28:5 *403:8 0
12 *28:5 *418:14 0
13 *28:11 *108:8 0.15847
14 *23:19 *28:11 0.00348146
15 *26:19 *28:11 0.234815
16 *27:19 *28:11 0.0183608
*RES
1 io_in[34] *28:5 92.565 
2 *28:5 *28:7 4.5 
3 *28:7 *28:8 205.83 
4 *28:8 *28:10 4.5 
5 *28:10 *28:11 355.05 
6 *28:11 *419:io_in[34] 10.665 
*END

*D_NET *29 0.150721
*CONN
*P io_in[35] I
*I *419:io_in[35] I *D user_proj_example
*CAP
1 io_in[35] 0.000237175
2 *419:io_in[35] 0.00132881
3 *29:19 0.0271911
4 *29:18 0.0258623
5 *29:16 0.0284093
6 *29:15 0.0284093
7 *29:13 0.017005
8 *29:11 0.0172421
9 *29:16 *321:13 0
10 *29:19 *38:15 0
11 *29:19 *45:10 0
12 *29:19 *53:10 0
13 *29:19 *92:10 0
14 *29:19 *97:12 0.00503575
*RES
1 io_in[35] *29:11 2.295 
2 *29:11 *29:13 179.01 
3 *29:13 *29:15 4.5 
4 *29:15 *29:16 280.89 
5 *29:16 *29:18 4.5 
6 *29:18 *29:19 274.95 
7 *29:19 *419:io_in[35] 16.875 
*END

*D_NET *30 0.229358
*CONN
*P io_in[36] I
*I *419:io_in[36] I *D user_proj_example
*CAP
1 io_in[36] 0.000641502
2 *419:io_in[36] 0.00215269
3 *30:11 0.0457181
4 *30:10 0.0435654
5 *30:8 0.0307077
6 *30:7 0.0313492
7 *30:8 io_oeb[30] 1.38095e-05
8 *30:8 *57:11 0.00988149
9 *30:8 *94:11 0.00975874
10 *30:8 *98:11 2.45503e-05
11 *30:8 *106:17 0.055545
12 *30:11 *93:10 0
13 *419:io_in[13] *30:11 0
14 *8:16 *30:11 0
15 *15:16 *30:11 0
*RES
1 io_in[36] *30:7 10.845 
2 *30:7 *30:8 355.59 
3 *30:8 *30:10 4.5 
4 *30:10 *30:11 455.13 
5 *30:11 *419:io_in[36] 24.975 
*END

*D_NET *31 0.184317
*CONN
*P io_in[37] I
*I *419:io_in[37] I *D user_proj_example
*CAP
1 io_in[37] 0.000310538
2 *419:io_in[37] 0.00101523
3 *31:16 0.0426983
4 *31:15 0.0416831
5 *31:13 0.0466316
6 *31:11 0.0469421
7 *419:io_in[37] *72:8 0
8 *419:io_in[37] *74:8 0
9 *419:io_in[37] *106:10 0.00503564
10 *31:13 *127:8 0
11 *31:13 *165:8 0
12 *31:16 *34:8 0
*RES
1 io_in[37] *31:11 2.835 
2 *31:11 *31:13 480.15 
3 *31:13 *31:15 4.5 
4 *31:15 *31:16 410.49 
5 *31:16 *419:io_in[37] 21.915 
*END

*D_NET *32 0.364549
*CONN
*P io_in[3] I
*I *419:io_in[3] I *D user_proj_example
*CAP
1 io_in[3] 0.000651608
2 *419:io_in[3] 0.00320864
3 *32:11 0.0716685
4 *32:10 0.0684599
5 *32:8 0.0170118
6 *32:7 0.0176634
7 *32:8 *39:13 0.0166328
8 *32:8 *70:15 0.168845
9 *32:11 *87:14 0
10 *32:11 *89:16 0.000407989
11 *2:11 *32:11 0
*RES
1 io_in[3] *32:7 11.025 
2 *32:7 *32:8 290.43 
3 *32:8 *32:10 4.5 
4 *32:10 *32:11 743.85 
5 *32:11 *419:io_in[3] 34.875 
*END

*D_NET *33 0.368612
*CONN
*P io_in[4] I
*I *419:io_in[4] I *D user_proj_example
*CAP
1 io_in[4] 0.00398561
2 *419:io_in[4] 0.000180312
3 *33:15 0.0308478
4 *33:14 0.0306675
5 *33:12 0.0194994
6 *33:11 0.0194994
7 *33:9 0.016465
8 *33:7 0.0204506
9 *33:9 *168:16 0
10 *33:9 *217:14 0.0514144
11 *33:9 *294:16 0.00648742
12 *33:9 *296:16 0
13 *33:9 *308:8 0
14 *33:15 *71:9 0.00368042
15 *33:15 *77:9 0
16 *33:15 *88:9 0
17 *33:15 *105:9 0.165434
*RES
1 io_in[4] *33:7 43.425 
2 *33:7 *33:9 244.44 
3 *33:9 *33:11 4.5 
4 *33:11 *33:12 194.49 
5 *33:12 *33:14 4.5 
6 *33:14 *33:15 455.13 
7 *33:15 *419:io_in[4] 15.03 
*END

*D_NET *34 0.455944
*CONN
*P io_in[5] I
*I *419:io_in[5] I *D user_proj_example
*CAP
1 io_in[5] 0.044307
2 *419:io_in[5] 4.40767e-05
3 *34:11 0.00258666
4 *34:10 0.00254258
5 *34:8 0.013807
6 *34:7 0.013807
7 *34:5 0.044307
8 *419:io_in[5] *63:23 0.000165786
9 *34:8 *106:11 0
10 *34:11 *35:19 0.158471
11 *34:11 *63:23 0.00288778
12 *34:11 *71:9 0.173018
13 *31:16 *34:8 0
*RES
1 io_in[5] *34:5 484.425 
2 *34:5 *34:7 4.5 
3 *34:7 *34:8 130.41 
4 *34:8 *34:10 4.5 
5 *34:10 *34:11 250.47 
6 *34:11 *419:io_in[5] 5.31 
*END

*D_NET *35 0.385036
*CONN
*P io_in[6] I
*I *419:io_in[6] I *D user_proj_example
*CAP
1 io_in[6] 0.000280649
2 *419:io_in[6] 0.000826912
3 *35:19 0.00562476
4 *35:18 0.00479785